<?xml version="1.0" encoding="UTF-8"?>

<!-- generated on 2023-11-10 13:28:50 by Eclipse SUMO netedit Version 1.19.0
<configuration xmlns:xsi="http://www.w3.org/2001/XMLSchema-instance" xsi:noNamespaceSchemaLocation="http://sumo.dlr.de/xsd/neteditConfiguration.xsd">

    <input>
        <sumo-net-file value="1.net.xml"/>
    </input>

    <output>
        <output-file value="1.net.xml"/>
    </output>

    <processing>
        <geometry.min-radius.fix.railways value="false"/>
        <geometry.max-grade.fix value="false"/>
        <offset.disable-normalization value="true"/>
        <lefthand value="0"/>
    </processing>

    <junctions>
        <no-internal-links value="true"/>
        <no-turnarounds value="true"/>
        <junctions.corner-detail value="5"/>
        <junctions.limit-turn-speed value="5.50"/>
        <rectangular-lane-cut value="0"/>
    </junctions>

    <pedestrian>
        <walkingareas value="0"/>
    </pedestrian>

</configuration>
-->

<net version="1.16" junctionCornerDetail="5" limitTurnSpeed="5.50" xmlns:xsi="http://www.w3.org/2001/XMLSchema-instance" xsi:noNamespaceSchemaLocation="http://sumo.dlr.de/xsd/net_file.xsd">

    <location netOffset="0.00,0.00" convBoundary="-87.43,1155.45,153.47,1231.04" origBoundary="-10000000000.00,-10000000000.00,10000000000.00,10000000000.00" projParameter="!"/>

    <edge id="-E26" from="J17" to="J16" priority="-1">
        <lane id="-E26_0" index="0" speed="13.89" length="252.48" shape="155.87,1163.08 -85.03,1238.68"/>
        <lane id="-E26_1" index="1" speed="13.89" length="252.48" shape="154.91,1160.03 -85.99,1235.62"/>
        <lane id="-E26_2" index="2" speed="13.89" length="252.48" shape="153.95,1156.98 -86.95,1232.57"/>
    </edge>
    <edge id="E26" from="J16" to="J17" priority="-1">
        <lane id="E26_0" index="0" speed="13.89" length="252.48" shape="-89.82,1223.41 151.08,1147.82"/>
        <lane id="E26_1" index="1" speed="13.89" length="252.48" shape="-88.86,1226.46 152.04,1150.87"/>
        <lane id="E26_2" index="2" speed="13.89" length="252.48" shape="-87.90,1229.52 152.99,1153.92"/>
    </edge>

    <junction id="J16" type="dead_end" x="-87.43" y="1231.04" incLanes="-E26_0 -E26_1 -E26_2" intLanes="" shape="-87.43,1231.04 -84.55,1240.20 -87.43,1231.04"/>
    <junction id="J17" type="dead_end" x="153.47" y="1155.45" incLanes="E26_0 E26_1 E26_2" intLanes="" shape="153.47,1155.45 150.60,1146.29 153.47,1155.45"/>

</net>
