<?xml version="1.0" encoding="UTF-8"?>

<!-- generated on 2023-11-10 15:39:08 by Eclipse SUMO netedit Version 1.19.0
<configuration xmlns:xsi="http://www.w3.org/2001/XMLSchema-instance" xsi:noNamespaceSchemaLocation="http://sumo.dlr.de/xsd/neteditConfiguration.xsd">

    <input>
        <sumo-net-file value="D:\YandexDisk\lvl80\UlyDala\Sumo\UlyDala\1.net.xml"/>
    </input>

    <output>
        <output-file value="D:\YandexDisk\lvl80\UlyDala\Sumo\UlyDala\1.net.xml"/>
    </output>

    <processing>
        <geometry.min-radius.fix.railways value="false"/>
        <geometry.max-grade.fix value="false"/>
        <offset.disable-normalization value="true"/>
        <lefthand value="0"/>
    </processing>

    <junctions>
        <no-internal-links value="true"/>
        <no-turnarounds value="true"/>
        <junctions.corner-detail value="5"/>
        <junctions.limit-turn-speed value="5.50"/>
        <rectangular-lane-cut value="0"/>
    </junctions>

    <pedestrian>
        <walkingareas value="0"/>
    </pedestrian>

</configuration>
-->

<net version="1.16" junctionCornerDetail="5" limitTurnSpeed="5.50" xmlns:xsi="http://www.w3.org/2001/XMLSchema-instance" xsi:noNamespaceSchemaLocation="http://sumo.dlr.de/xsd/net_file.xsd">

    <location netOffset="0.00,0.00" convBoundary="-475.88,534.79,1618.93,1632.95" origBoundary="-10000000000.00,-10000000000.00,10000000000.00,10000000000.00" projParameter="!"/>

    <edge id="-E1.137" from="J7" to="J16" priority="-1" shape="243.57,1134.43 156.35,1154.90 -77.84,1226.15">
        <lane id="-E1.137_0" index="0" speed="13.89" length="345.87" shape="238.20,1143.91 158.43,1162.63 -72.35,1232.84"/>
        <lane id="-E1.137_1" index="1" speed="13.89" length="345.87" shape="237.47,1140.79 157.60,1159.54 -73.28,1229.78"/>
        <lane id="-E1.137_2" index="2" speed="13.89" length="345.87" shape="236.74,1137.68 156.77,1156.45 -74.22,1226.72"/>
    </edge>
    <edge id="-E10" from="J23" to="J22" priority="-1">
        <lane id="-E10_0" index="0" speed="13.89" length="279.73" shape="657.47,1322.32 602.32,1062.03"/>
    </edge>
    <edge id="-E11" from="J24" to="J17" priority="-1">
        <lane id="-E11_0" index="0" speed="13.89" length="274.55" shape="540.12,779.49 599.24,1033.63"/>
    </edge>
    <edge id="-E3" from="J3" to="J16" priority="-1" shape="27.77,1626.72 -86.10,1239.54">
        <lane id="-E3_0" index="0" speed="13.89" length="421.56" shape="22.00,1635.44 -92.70,1245.45"/>
        <lane id="-E3_1" index="1" speed="13.89" length="421.56" shape="25.07,1634.54 -89.63,1244.55"/>
        <lane id="-E3_2" index="2" speed="13.89" length="421.56" shape="28.14,1633.64 -86.56,1243.64"/>
    </edge>
    <edge id="-E4" from="J4" to="J16" priority="-1" shape="-365.66,1327.68 -99.33,1232.34">
        <lane id="-E4_0" index="0" speed="13.89" length="301.18" shape="-374.38,1322.31 -105.39,1226.01"/>
        <lane id="-E4_1" index="1" speed="13.89" length="301.18" shape="-373.30,1325.32 -104.30,1229.02"/>
        <lane id="-E4_2" index="2" speed="13.89" length="301.18" shape="-372.22,1328.33 -103.22,1232.03"/>
    </edge>
    <edge id="-E5" from="J5" to="J6" priority="-1">
        <lane id="-E5_0" index="0" speed="13.89" length="278.41" shape="149.71,1141.25 89.83,883.31"/>
    </edge>
    <edge id="-E6" from="J8" to="J7" priority="-1">
        <lane id="-E6_0" index="0" speed="13.89" length="282.37" shape="301.03,1410.89 244.86,1148.13"/>
    </edge>
    <edge id="-E8" from="J14" to="J22" priority="-1" shape="1613.08,792.08 1036.70,945.38 816.42,997.05 601.05,1048.34">
        <lane id="-E8_0" index="0" speed="13.89" length="1052.10" shape="1621.39,798.15 1038.64,953.14 818.26,1004.84 609.68,1054.51"/>
        <lane id="-E8_1" index="1" speed="13.89" length="1052.10" shape="1620.56,795.06 1037.87,950.04 817.52,1001.72 608.93,1051.40"/>
        <lane id="-E8_2" index="2" speed="13.89" length="1052.10" shape="1619.74,791.96 1037.09,946.93 816.79,998.61 608.19,1048.28"/>
    </edge>
    <edge id="E10" from="J22" to="J23" priority="-1">
        <lane id="E10_0" index="0" speed="13.89" length="279.73" shape="605.45,1061.37 660.61,1321.66"/>
    </edge>
    <edge id="E11" from="J17" to="J24" priority="-1">
        <lane id="E11_0" index="0" speed="13.89" length="274.55" shape="596.13,1034.36 537.00,780.21"/>
    </edge>
    <edge id="E26" from="J16" to="J5" priority="-1" shape="-78.12,1225.10 154.35,1154.15">
        <lane id="E26_0" index="0" speed="13.89" length="254.62" shape="-77.34,1216.50 145.75,1148.41"/>
        <lane id="E26_1" index="1" speed="13.89" length="254.62" shape="-76.40,1219.56 146.68,1151.47"/>
        <lane id="E26_2" index="2" speed="13.89" length="254.62" shape="-75.47,1222.62 147.62,1154.53"/>
    </edge>
    <edge id="E26.253" from="J5" to="J20" priority="-1" shape="154.35,1154.15 243.88,1132.98 375.04,1099.40">
        <lane id="E26.253_0" index="0" speed="13.89" length="227.63" shape="159.55,1144.70 241.97,1125.21 373.06,1091.65"/>
        <lane id="E26.253_1" index="1" speed="13.89" length="227.63" shape="160.29,1147.81 242.73,1128.32 373.85,1094.75"/>
        <lane id="E26.253_2" index="2" speed="13.89" length="227.63" shape="161.03,1150.93 243.50,1131.43 374.64,1097.85"/>
    </edge>
    <edge id="E3" from="J16" to="J3" priority="-1" shape="-84.63,1239.22 29.16,1626.22">
        <lane id="E3_0" index="0" speed="13.89" length="421.41" shape="-75.91,1240.51 38.76,1630.51"/>
        <lane id="E3_1" index="1" speed="13.89" length="421.41" shape="-78.98,1241.42 35.69,1631.42"/>
        <lane id="E3_2" index="2" speed="13.89" length="421.41" shape="-82.05,1242.32 32.62,1632.32"/>
    </edge>
    <edge id="E4" from="J16" to="J4" priority="-1" shape="-99.06,1233.19 -365.20,1328.88">
        <lane id="E4_0" index="0" speed="13.89" length="300.38" shape="-99.67,1241.91 -368.54,1338.58"/>
        <lane id="E4_1" index="1" speed="13.89" length="300.38" shape="-100.75,1238.90 -369.62,1335.57"/>
        <lane id="E4_2" index="2" speed="13.89" length="300.38" shape="-101.84,1235.89 -370.70,1332.56"/>
    </edge>
    <edge id="E5" from="J6" to="J5" priority="-1">
        <lane id="E5_0" index="0" speed="13.89" length="278.41" shape="92.95,882.59 152.83,1140.53"/>
    </edge>
    <edge id="E6" from="J7" to="J8" priority="-1">
        <lane id="E6_0" index="0" speed="13.89" length="282.37" shape="247.99,1147.46 304.15,1410.23"/>
    </edge>
    <edge id="E8" from="J20" to="J17" priority="-1" shape="375.04,1099.40 600.77,1047.26">
        <lane id="E8_0" index="0" speed="13.89" length="231.91" shape="373.24,1091.61 591.94,1041.09"/>
        <lane id="E8_1" index="1" speed="13.89" length="231.91" shape="373.96,1094.72 592.66,1044.21"/>
        <lane id="E8_2" index="2" speed="13.89" length="231.91" shape="374.68,1097.84 593.38,1047.32"/>
    </edge>
    <edge id="E8.223" from="J17" to="J15" priority="-1">
        <lane id="E8.223_0" index="0" speed="13.89" length="221.39" shape="605.97,1037.79 814.11,988.09"/>
        <lane id="E8.223_1" index="1" speed="13.89" length="221.39" shape="606.71,1040.91 814.86,991.20"/>
        <lane id="E8.223_2" index="2" speed="13.89" length="221.39" shape="607.46,1044.02 815.60,994.32"/>
    </edge>
    <edge id="E8.445" from="J15" to="J18" priority="-1">
        <lane id="E8.445_0" index="0" speed="13.89" length="226.30" shape="814.41,988.02 1034.32,936.20"/>
        <lane id="E8.445_1" index="1" speed="13.89" length="226.30" shape="815.15,991.14 1035.06,939.31"/>
        <lane id="E8.445_2" index="2" speed="13.89" length="226.30" shape="815.88,994.25 1035.79,942.43"/>
    </edge>
    <edge id="E8.673" from="J18" to="J14" priority="-1" shape="1036.38,943.93 1612.46,789.86">
        <lane id="E8.673_0" index="0" speed="13.89" length="603.56" shape="1034.53,936.14 1616.67,780.45"/>
        <lane id="E8.673_1" index="1" speed="13.89" length="603.56" shape="1035.36,939.23 1617.49,783.54"/>
        <lane id="E8.673_2" index="2" speed="13.89" length="603.56" shape="1036.19,942.33 1618.32,786.64"/>
    </edge>
    <edge id="E9" from="J22" to="J7" priority="-1" shape="601.05,1048.34 375.31,1100.37 243.57,1134.43">
        <lane id="E9_0" index="0" speed="13.89" length="367.73" shape="595.66,1057.79 377.21,1108.14 252.15,1140.47"/>
        <lane id="E9_1" index="1" speed="13.89" length="367.73" shape="594.95,1054.67 376.45,1105.03 251.35,1137.38"/>
        <lane id="E9_2" index="2" speed="13.89" length="367.73" shape="594.23,1051.55 375.69,1101.92 250.55,1134.28"/>
    </edge>

    <junction id="J10" type="dead_end" x="-475.88" y="1052.49" incLanes="" intLanes="" shape="-475.88,1052.49"/>
    <junction id="J14" type="dead_end" x="1618.93" y="788.90" incLanes="E8.673_0 E8.673_1 E8.673_2" intLanes="" shape="1621.80,799.69 1616.26,778.91 1618.74,788.18"/>
    <junction id="J15" type="priority" x="816.11" y="995.84" incLanes="E8.223_0 E8.223_1 E8.223_2" intLanes="" shape="816.25,995.81 814.05,986.46 813.74,986.54 815.97,995.87">
        <request index="0" response="000" foes="000"/>
        <request index="1" response="000" foes="000"/>
        <request index="2" response="000" foes="000"/>
    </junction>
    <junction id="J16" type="priority" x="-88.83" y="1229.50" incLanes="-E3_0 -E3_1 -E3_2 -E1.137_0 -E1.137_1 -E1.137_2 -E4_0 -E4_1 -E4_2" intLanes="" shape="-94.24,1245.90 -74.38,1240.06 -74.69,1237.42 -74.42,1236.38 -73.86,1235.52 -73.01,1234.85 -71.88,1234.37 -77.80,1214.97 -105.93,1224.51 -99.13,1243.42 -96.91,1243.09 -96.02,1243.36 -95.28,1243.92 -94.69,1244.77">
        <request index="0"  response="000001110000" foes="000001110000"/>
        <request index="1"  response="111111110000" foes="111111110000"/>
        <request index="2"  response="111111110000" foes="111111110000"/>
        <request index="3"  response="000000000000" foes="000000000000"/>
        <request index="4"  response="000000000000" foes="110000000111"/>
        <request index="5"  response="000000000000" foes="110000000111"/>
        <request index="6"  response="000000000000" foes="110000000111"/>
        <request index="7"  response="000000000000" foes="000000000110"/>
        <request index="8"  response="000000000000" foes="000000000110"/>
        <request index="9"  response="000000000000" foes="000000000110"/>
        <request index="10" response="000001110000" foes="000001110110"/>
        <request index="11" response="000001110000" foes="000001110110"/>
    </junction>
    <junction id="J17" type="priority" x="600.77" y="1047.26" incLanes="-E11_0 E8_0 E8_1 E8_2" intLanes="" shape="607.83,1045.57 605.60,1036.24 603.34,1036.32 602.45,1035.96 601.74,1035.33 601.19,1034.43 600.80,1033.27 594.57,1034.72 594.64,1036.99 594.28,1037.88 593.64,1038.60 592.75,1039.15 591.58,1039.53 593.74,1048.88">
        <request index="0" response="11100" foes="11100"/>
        <request index="1" response="00000" foes="00000"/>
        <request index="2" response="00000" foes="00001"/>
        <request index="3" response="00000" foes="00001"/>
        <request index="4" response="00000" foes="00001"/>
    </junction>
    <junction id="J18" type="priority" x="1036.38" y="943.93" incLanes="E8.445_0 E8.445_1 E8.445_2" intLanes="" shape="1036.60,943.87 1034.12,934.60 1033.96,934.64 1036.16,943.98">
        <request index="0" response="000" foes="000"/>
        <request index="1" response="000" foes="000"/>
        <request index="2" response="000" foes="000"/>
    </junction>
    <junction id="J20" type="priority" x="375.04" y="1099.16" incLanes="E26.253_0 E26.253_1 E26.253_2" intLanes="" shape="375.12,1099.38 372.96,1090.03 372.58,1090.12 374.96,1099.42">
        <request index="0" response="000" foes="000"/>
        <request index="1" response="000" foes="000"/>
        <request index="2" response="000" foes="000"/>
    </junction>
    <junction id="J22" type="priority" x="601.05" y="1048.34" incLanes="-E10_0 -E8_0 -E8_1 -E8_2" intLanes="" shape="600.75,1062.36 607.01,1061.04 606.97,1058.69 607.34,1057.77 607.98,1057.03 608.88,1056.46 610.05,1056.07 607.82,1046.73 593.87,1050.00 596.02,1059.35 598.28,1059.29 599.15,1059.65 599.86,1060.29 600.39,1061.19">
        <request index="0" response="11100" foes="11100"/>
        <request index="1" response="00000" foes="00000"/>
        <request index="2" response="00000" foes="00001"/>
        <request index="3" response="00000" foes="00001"/>
        <request index="4" response="00000" foes="00001"/>
    </junction>
    <junction id="J23" type="dead_end" x="659.04" y="1321.99" incLanes="E10_0" intLanes="" shape="659.04,1321.99 662.17,1321.33 659.04,1321.99"/>
    <junction id="J24" type="dead_end" x="538.56" y="779.85" incLanes="E11_0" intLanes="" shape="538.56,779.85 535.44,780.58 538.56,779.85"/>
    <junction id="J3" type="dead_end" x="30.48" y="1632.95" incLanes="E3_0 E3_1 E3_2" intLanes="" shape="29.67,1633.19 40.30,1630.06 31.09,1632.77"/>
    <junction id="J4" type="dead_end" x="-371.34" y="1330.81" incLanes="E4_0 E4_1 E4_2" intLanes="" shape="-374.92,1320.80 -368.00,1340.09 -371.25,1331.06"/>
    <junction id="J5" type="priority" x="154.35" y="1154.15" incLanes="E5_0 E26_0 E26_1 E26_2" intLanes="" shape="161.39,1152.48 159.19,1143.14 156.92,1143.22 156.04,1142.86 155.32,1142.23 154.77,1141.33 154.39,1140.17 148.15,1141.61 148.26,1144.02 147.91,1144.98 147.30,1145.78 146.42,1146.41 145.28,1146.88 148.08,1156.06">
        <request index="0" response="11100" foes="11100"/>
        <request index="1" response="00000" foes="00000"/>
        <request index="2" response="00000" foes="00001"/>
        <request index="3" response="00000" foes="00001"/>
        <request index="4" response="00000" foes="00001"/>
    </junction>
    <junction id="J6" type="dead_end" x="91.39" y="882.95" incLanes="-E5_0" intLanes="" shape="91.39,882.95 88.27,883.67 91.39,882.95"/>
    <junction id="J7" type="priority" x="243.57" y="1134.43" incLanes="-E6_0 E9_0 E9_1 E9_2" intLanes="" shape="243.30,1148.46 249.56,1147.13 249.50,1144.74 249.87,1143.80 250.50,1143.04 251.39,1142.44 252.55,1142.02 250.15,1132.73 236.37,1136.12 238.57,1145.47 240.82,1145.39 241.70,1145.76 242.40,1146.39 242.93,1147.29">
        <request index="0" response="11100" foes="11100"/>
        <request index="1" response="00000" foes="00000"/>
        <request index="2" response="00000" foes="00001"/>
        <request index="3" response="00000" foes="00001"/>
        <request index="4" response="00000" foes="00001"/>
    </junction>
    <junction id="J8" type="dead_end" x="302.59" y="1410.56" incLanes="E6_0" intLanes="" shape="302.59,1410.56 305.72,1409.89 302.59,1410.56"/>
    <junction id="J9" type="dead_end" x="480.63" y="534.79" incLanes="" intLanes="" shape="480.63,534.79"/>

    <connection from="-E1.137" to="E3" fromLane="0" toLane="0" dir="r" state="M"/>
    <connection from="-E1.137" to="E4" fromLane="0" toLane="0" dir="s" state="M"/>
    <connection from="-E1.137" to="E4" fromLane="1" toLane="1" dir="s" state="M"/>
    <connection from="-E1.137" to="E4" fromLane="2" toLane="2" dir="s" state="M"/>
    <connection from="-E10" to="E9" fromLane="0" toLane="0" dir="r" state="m"/>
    <connection from="-E11" to="E8.223" fromLane="0" toLane="0" dir="r" state="m"/>
    <connection from="-E3" to="E4" fromLane="0" toLane="0" dir="r" state="m"/>
    <connection from="-E3" to="E26" fromLane="1" toLane="1" dir="l" state="m"/>
    <connection from="-E3" to="E26" fromLane="2" toLane="2" dir="l" state="m"/>
    <connection from="-E4" to="E26" fromLane="0" toLane="0" dir="s" state="M"/>
    <connection from="-E4" to="E26" fromLane="1" toLane="1" dir="s" state="M"/>
    <connection from="-E4" to="E26" fromLane="2" toLane="2" dir="s" state="M"/>
    <connection from="-E4" to="E3" fromLane="2" toLane="1" dir="l" state="m"/>
    <connection from="-E4" to="E3" fromLane="2" toLane="2" dir="l" state="m"/>
    <connection from="-E6" to="-E1.137" fromLane="0" toLane="0" dir="r" state="m"/>
    <connection from="-E8" to="E10" fromLane="0" toLane="0" dir="r" state="M"/>
    <connection from="-E8" to="E9" fromLane="0" toLane="0" dir="s" state="M"/>
    <connection from="-E8" to="E9" fromLane="1" toLane="1" dir="s" state="M"/>
    <connection from="-E8" to="E9" fromLane="2" toLane="2" dir="s" state="M"/>
    <connection from="E26" to="-E5" fromLane="0" toLane="0" dir="r" state="M"/>
    <connection from="E26" to="E26.253" fromLane="0" toLane="0" dir="s" state="M"/>
    <connection from="E26" to="E26.253" fromLane="1" toLane="1" dir="s" state="M"/>
    <connection from="E26" to="E26.253" fromLane="2" toLane="2" dir="s" state="M"/>
    <connection from="E26.253" to="E8" fromLane="0" toLane="0" dir="s" state="M"/>
    <connection from="E26.253" to="E8" fromLane="1" toLane="1" dir="s" state="M"/>
    <connection from="E26.253" to="E8" fromLane="2" toLane="2" dir="s" state="M"/>
    <connection from="E5" to="E26.253" fromLane="0" toLane="0" dir="r" state="m"/>
    <connection from="E8" to="E11" fromLane="0" toLane="0" dir="r" state="M"/>
    <connection from="E8" to="E8.223" fromLane="0" toLane="0" dir="s" state="M"/>
    <connection from="E8" to="E8.223" fromLane="1" toLane="1" dir="s" state="M"/>
    <connection from="E8" to="E8.223" fromLane="2" toLane="2" dir="s" state="M"/>
    <connection from="E8.223" to="E8.445" fromLane="0" toLane="0" dir="s" state="M"/>
    <connection from="E8.223" to="E8.445" fromLane="1" toLane="1" dir="s" state="M"/>
    <connection from="E8.223" to="E8.445" fromLane="2" toLane="2" dir="s" state="M"/>
    <connection from="E8.445" to="E8.673" fromLane="0" toLane="0" dir="s" state="M"/>
    <connection from="E8.445" to="E8.673" fromLane="1" toLane="1" dir="s" state="M"/>
    <connection from="E8.445" to="E8.673" fromLane="2" toLane="2" dir="s" state="M"/>
    <connection from="E9" to="E6" fromLane="0" toLane="0" dir="r" state="M"/>
    <connection from="E9" to="-E1.137" fromLane="0" toLane="0" dir="s" state="M"/>
    <connection from="E9" to="-E1.137" fromLane="1" toLane="1" dir="s" state="M"/>
    <connection from="E9" to="-E1.137" fromLane="2" toLane="2" dir="s" state="M"/>

</net>
