<?xml version="1.0" encoding="UTF-8"?>

<!-- generated on 2023-11-09 19:59:48 by Eclipse SUMO netedit Version 1.19.0
<configuration xmlns:xsi="http://www.w3.org/2001/XMLSchema-instance" xsi:noNamespaceSchemaLocation="http://sumo.dlr.de/xsd/neteditConfiguration.xsd">

    <input>
        <sumo-net-file value="D:\YandexDisk\lvl80\UlyDala\Sumo\UlyDala\1.net.xml"/>
    </input>

    <output>
        <output-file value="D:\YandexDisk\lvl80\UlyDala\Sumo\UlyDala\1.net.xml"/>
    </output>

    <processing>
        <geometry.min-radius.fix.railways value="false"/>
        <geometry.max-grade.fix value="false"/>
        <offset.disable-normalization value="true"/>
        <lefthand value="0"/>
    </processing>

    <junctions>
        <no-internal-links value="true"/>
        <no-turnarounds value="true"/>
        <junctions.corner-detail value="5"/>
        <junctions.limit-turn-speed value="5.50"/>
        <rectangular-lane-cut value="0"/>
    </junctions>

    <pedestrian>
        <walkingareas value="0"/>
    </pedestrian>

</configuration>
-->

<net version="1.16" junctionCornerDetail="5" limitTurnSpeed="5.50" xmlns:xsi="http://www.w3.org/2001/XMLSchema-instance" xsi:noNamespaceSchemaLocation="http://sumo.dlr.de/xsd/net_file.xsd">

    <location netOffset="0.00,0.00" convBoundary="-119.37,-58.06,531.31,473.82" origBoundary="-10000000000.00,-10000000000.00,10000000000.00,10000000000.00" projParameter="!"/>

    <edge id="-E10" from="J15" to="J13" priority="-1">
        <lane id="-E10_0" index="0" allow="pedestrian" speed="13.89" length="85.75" width="2.00" shape="423.59,355.48 395.27,290.09"/>
        <lane id="-E10_1" index="1" disallow="pedestrian" speed="13.89" length="85.75" shape="425.98,354.45 397.66,289.06"/>
        <lane id="-E10_2" index="2" disallow="pedestrian" speed="13.89" length="85.75" shape="428.91,353.17 400.59,287.78"/>
        <lane id="-E10_3" index="3" disallow="pedestrian" speed="13.89" length="85.75" shape="431.85,351.90 403.53,286.51"/>
    </edge>
    <edge id="-E11" from="J16" to="J13" priority="-1">
        <lane id="-E11_0" index="0" allow="pedestrian" speed="13.89" length="149.84" width="2.00" shape="536.31,211.14 417.03,275.07"/>
        <lane id="-E11_1" index="1" disallow="pedestrian" speed="13.89" length="149.84" shape="535.09,208.85 415.81,272.78"/>
        <lane id="-E11_2" index="2" disallow="pedestrian" speed="13.89" length="149.84" shape="533.57,206.03 414.29,269.96"/>
        <lane id="-E11_3" index="3" disallow="pedestrian" speed="13.89" length="149.84" shape="532.06,203.21 412.78,267.14"/>
    </edge>
    <edge id="-E12" from="J17" to="J14" priority="-1">
        <lane id="-E12_0" index="0" allow="pedestrian" speed="13.89" length="122.62" width="2.00" shape="261.90,-62.39 306.26,36.58"/>
        <lane id="-E12_1" index="1" disallow="pedestrian" speed="13.89" length="122.62" shape="259.52,-61.33 303.88,37.64"/>
        <lane id="-E12_2" index="2" disallow="pedestrian" speed="13.89" length="122.62" shape="256.60,-60.02 300.96,38.95"/>
        <lane id="-E12_3" index="3" disallow="pedestrian" speed="13.89" length="122.62" shape="253.68,-58.71 298.04,40.26"/>
    </edge>
    <edge id="-E13" from="J18" to="J14" priority="-1">
        <lane id="-E13_0" index="0" allow="pedestrian" speed="13.89" length="147.47" width="2.00" shape="438.73,-3.33 319.80,56.90"/>
        <lane id="-E13_1" index="1" disallow="pedestrian" speed="13.89" length="147.47" shape="437.55,-5.65 318.63,54.58"/>
        <lane id="-E13_2" index="2" disallow="pedestrian" speed="13.89" length="147.47" shape="436.11,-8.50 317.18,51.72"/>
        <lane id="-E13_3" index="3" disallow="pedestrian" speed="13.89" length="147.47" shape="434.66,-11.36 315.73,48.87"/>
    </edge>
    <edge id="-E14" from="J19" to="J10" priority="-1">
        <lane id="-E14_0" index="0" allow="pedestrian" speed="13.89" length="130.20" width="2.00" shape="-11.55,61.80 47.67,161.22"/>
        <lane id="-E14_1" index="1" disallow="pedestrian" speed="13.89" length="130.20" shape="-13.78,63.13 45.44,162.55"/>
        <lane id="-E14_2" index="2" disallow="pedestrian" speed="13.89" length="130.20" shape="-16.53,64.76 42.69,164.19"/>
        <lane id="-E14_3" index="3" disallow="pedestrian" speed="13.89" length="130.20" shape="-19.28,66.40 39.94,165.83"/>
    </edge>
    <edge id="-E15" from="J20" to="J11" priority="-1">
        <lane id="-E15_0" index="0" allow="pedestrian" speed="13.89" length="155.99" width="2.00" shape="29.77,464.74 151.46,391.35"/>
        <lane id="-E15_1" index="1" disallow="pedestrian" speed="13.89" length="155.99" shape="31.11,466.97 152.80,393.58"/>
        <lane id="-E15_2" index="2" disallow="pedestrian" speed="13.89" length="155.99" shape="32.76,469.71 154.46,396.32"/>
        <lane id="-E15_3" index="3" disallow="pedestrian" speed="13.89" length="155.99" shape="34.42,472.45 156.11,399.06"/>
    </edge>
    <edge id="-E16" from="J21" to="J10" priority="-1">
        <lane id="-E16_0" index="0" allow="pedestrian" speed="13.89" length="185.00" width="2.00" shape="-124.13,252.60 28.29,176.09"/>
        <lane id="-E16_1" index="1" disallow="pedestrian" speed="13.89" length="185.00" shape="-122.96,254.92 29.45,178.42"/>
        <lane id="-E16_2" index="2" disallow="pedestrian" speed="13.89" length="185.00" shape="-121.52,257.78 30.89,181.28"/>
        <lane id="-E16_3" index="3" disallow="pedestrian" speed="13.89" length="185.00" shape="-120.09,260.64 32.32,184.14"/>
    </edge>
    <edge id="-E17" from="J23" to="J22" priority="-1">
        <lane id="-E17_0" index="0" allow="pedestrian" speed="13.89" length="83.78" width="2.00" shape="204.19,195.80 166.81,135.81"/>
        <lane id="-E17_1" index="1" disallow="pedestrian" speed="13.89" length="83.78" shape="206.39,194.43 169.02,134.44"/>
    </edge>
    <edge id="-E18" from="J25" to="J24" priority="-1">
        <lane id="-E18_0" index="0" allow="pedestrian" speed="13.89" length="85.12" width="2.00" shape="239.43,260.25 271.90,323.91"/>
        <lane id="-E18_1" index="1" disallow="pedestrian" speed="13.89" length="85.12" shape="237.12,261.43 269.58,325.09"/>
    </edge>
    <edge id="-E19" from="J27" to="J26" priority="-1">
        <lane id="-E19_0" index="0" allow="pedestrian" speed="13.89" length="97.27" width="2.00" shape="188.37,232.32 114.40,270.98"/>
        <lane id="-E19_1" index="1" disallow="pedestrian" speed="13.89" length="97.27" shape="187.16,230.02 113.20,268.68"/>
    </edge>
    <edge id="-E5" from="J11" to="J26" priority="-1">
        <lane id="-E5_0" index="0" allow="pedestrian" speed="13.89" length="137.88" width="2.00" shape="152.98,386.96 94.83,285.57"/>
        <lane id="-E5_1" index="1" disallow="pedestrian" speed="13.89" length="137.88" shape="155.24,385.66 97.09,284.28"/>
        <lane id="-E5_2" index="2" disallow="pedestrian" speed="13.89" length="137.88" shape="158.01,384.07 99.86,282.69"/>
        <lane id="-E5_3" index="3" disallow="pedestrian" speed="13.89" length="137.88" shape="160.79,382.48 102.64,281.10"/>
    </edge>
    <edge id="-E50" from="J26" to="J10" priority="-1">
        <lane id="-E50_0" index="0" allow="pedestrian" speed="13.89" length="109.03" width="2.00" shape="87.66,273.07 44.37,197.59"/>
        <lane id="-E50_1" index="1" disallow="pedestrian" speed="13.89" length="109.03" shape="89.92,271.78 46.63,196.30"/>
        <lane id="-E50_2" index="2" disallow="pedestrian" speed="13.89" length="109.03" shape="92.69,270.19 49.40,194.71"/>
        <lane id="-E50_3" index="3" disallow="pedestrian" speed="13.89" length="109.03" shape="95.47,268.60 52.18,193.11"/>
    </edge>
    <edge id="-E6" from="J12" to="J11" priority="-1">
        <lane id="-E6_0" index="0" allow="pedestrian" speed="13.89" length="64.81" width="2.00" shape="191.77,454.79 166.58,410.71"/>
        <lane id="-E6_1" index="1" disallow="pedestrian" speed="13.89" length="64.81" shape="194.02,453.50 168.83,409.42"/>
        <lane id="-E6_2" index="2" disallow="pedestrian" speed="13.89" length="64.81" shape="196.80,451.91 171.61,407.83"/>
        <lane id="-E6_3" index="3" disallow="pedestrian" speed="13.89" length="64.81" shape="199.58,450.32 174.39,406.24"/>
    </edge>
    <edge id="-E7" from="J13" to="J11" priority="-1">
        <lane id="-E7_0" index="0" allow="pedestrian" speed="13.89" length="260.11" width="2.00" shape="391.32,288.69 186.17,396.14"/>
        <lane id="-E7_1" index="1" disallow="pedestrian" speed="13.89" length="260.11" shape="390.12,286.39 184.96,393.84"/>
        <lane id="-E7_2" index="2" disallow="pedestrian" speed="13.89" length="260.11" shape="388.63,283.56 183.48,391.00"/>
        <lane id="-E7_3" index="3" disallow="pedestrian" speed="13.89" length="260.11" shape="387.15,280.72 181.99,388.17"/>
    </edge>
    <edge id="-E8" from="J14" to="J22" priority="-1" shape="302.38,53.84 278.40,66.16 181.18,113.69 163.45,122.47">
        <lane id="-E8_0" index="0" allow="pedestrian" speed="13.89" length="154.96" width="2.00" shape="293.21,66.87 281.72,72.78 184.45,120.33 173.94,125.53"/>
        <lane id="-E8_1" index="1" disallow="pedestrian" speed="13.89" length="154.96" shape="292.03,64.55 280.55,70.45 183.30,118.00 172.79,123.20"/>
        <lane id="-E8_2" index="2" disallow="pedestrian" speed="13.89" length="154.96" shape="290.57,61.71 279.12,67.59 181.89,115.13 171.37,120.33"/>
    </edge>
    <edge id="-E8.147" from="J22" to="J10" priority="-1" shape="163.45,122.47 147.21,130.29 60.24,173.26 45.97,179.08">
        <lane id="-E8.147_0" index="0" allow="pedestrian" speed="13.89" length="130.44" width="2.00" shape="162.67,134.61 151.86,139.82 64.59,182.93 64.00,183.17"/>
        <lane id="-E8.147_1" index="1" disallow="pedestrian" speed="13.89" length="130.44" shape="161.54,132.27 150.72,137.48 63.53,180.56 62.74,180.88"/>
        <lane id="-E8.147_2" index="2" disallow="pedestrian" speed="13.89" length="130.44" shape="160.15,129.38 149.31,134.60 62.21,177.64 61.18,178.06"/>
        <lane id="-E8.147_3" index="3" disallow="pedestrian" speed="13.89" length="130.44" shape="158.77,126.50 147.91,131.73 60.90,174.72 59.63,175.24"/>
    </edge>
    <edge id="-E9" from="J14" to="J13" priority="-1">
        <lane id="-E9_0" index="0" allow="pedestrian" speed="13.89" length="239.23" width="2.00" shape="317.34,61.45 403.06,255.03"/>
        <lane id="-E9_1" index="1" disallow="pedestrian" speed="13.89" length="239.23" shape="314.96,62.50 400.68,256.08"/>
        <lane id="-E9_2" index="2" disallow="pedestrian" speed="13.89" length="239.23" shape="312.03,63.79 397.76,257.37"/>
        <lane id="-E9_3" index="3" disallow="pedestrian" speed="13.89" length="239.23" shape="309.11,65.09 394.83,258.67"/>
    </edge>
    <edge id="E10" from="J13" to="J15" priority="-1">
        <lane id="E10_0" index="0" allow="pedestrian" speed="13.89" length="85.75" width="2.00" shape="414.73,281.66 443.05,347.05"/>
        <lane id="E10_1" index="1" disallow="pedestrian" speed="13.89" length="85.75" shape="412.34,282.70 440.66,348.09"/>
        <lane id="E10_2" index="2" disallow="pedestrian" speed="13.89" length="85.75" shape="409.40,283.97 437.72,349.36"/>
        <lane id="E10_3" index="3" disallow="pedestrian" speed="13.89" length="85.75" shape="406.47,285.24 434.79,350.63"/>
    </edge>
    <edge id="E11" from="J13" to="J16" priority="-1">
        <lane id="E11_0" index="0" allow="pedestrian" speed="13.89" length="149.84" width="2.00" shape="407.02,256.39 526.30,192.46"/>
        <lane id="E11_1" index="1" disallow="pedestrian" speed="13.89" length="149.84" shape="408.25,258.68 527.53,194.75"/>
        <lane id="E11_2" index="2" disallow="pedestrian" speed="13.89" length="149.84" shape="409.76,261.50 529.04,197.57"/>
        <lane id="E11_3" index="3" disallow="pedestrian" speed="13.89" length="149.84" shape="411.27,264.32 530.55,200.39"/>
    </edge>
    <edge id="E12" from="J14" to="J17" priority="-1">
        <lane id="E12_0" index="0" allow="pedestrian" speed="13.89" length="122.62" width="2.00" shape="286.91,45.25 242.55,-53.72"/>
        <lane id="E12_1" index="1" disallow="pedestrian" speed="13.89" length="122.62" shape="289.28,44.19 244.92,-54.78"/>
        <lane id="E12_2" index="2" disallow="pedestrian" speed="13.89" length="122.62" shape="292.20,42.88 247.84,-56.09"/>
        <lane id="E12_3" index="3" disallow="pedestrian" speed="13.89" length="122.62" shape="295.12,41.57 250.76,-57.40"/>
    </edge>
    <edge id="E13" from="J14" to="J18" priority="-1">
        <lane id="E13_0" index="0" allow="pedestrian" speed="13.89" length="147.47" width="2.00" shape="310.22,37.98 429.15,-22.24"/>
        <lane id="E13_1" index="1" disallow="pedestrian" speed="13.89" length="147.47" shape="311.40,40.30 430.32,-19.92"/>
        <lane id="E13_2" index="2" disallow="pedestrian" speed="13.89" length="147.47" shape="312.84,43.16 431.77,-17.07"/>
        <lane id="E13_3" index="3" disallow="pedestrian" speed="13.89" length="147.47" shape="314.29,46.01 433.22,-14.21"/>
    </edge>
    <edge id="E14" from="J10" to="J19" priority="-1">
        <lane id="E14_0" index="0" allow="pedestrian" speed="13.89" length="130.20" width="2.00" shape="29.46,172.07 -29.76,72.65"/>
        <lane id="E14_1" index="1" disallow="pedestrian" speed="13.89" length="130.20" shape="31.69,170.74 -27.53,71.32"/>
        <lane id="E14_2" index="2" disallow="pedestrian" speed="13.89" length="130.20" shape="34.44,169.10 -24.78,69.68"/>
        <lane id="E14_3" index="3" disallow="pedestrian" speed="13.89" length="130.20" shape="37.19,167.47 -22.03,68.04"/>
    </edge>
    <edge id="E15" from="J11" to="J20" priority="-1">
        <lane id="E15_0" index="0" allow="pedestrian" speed="13.89" length="155.99" width="2.00" shape="162.41,409.51 40.72,482.90"/>
        <lane id="E15_1" index="1" disallow="pedestrian" speed="13.89" length="155.99" shape="161.07,407.28 39.37,480.67"/>
        <lane id="E15_2" index="2" disallow="pedestrian" speed="13.89" length="155.99" shape="159.41,404.54 37.72,477.93"/>
        <lane id="E15_3" index="3" disallow="pedestrian" speed="13.89" length="155.99" shape="157.76,401.80 36.07,475.19"/>
    </edge>
    <edge id="E16" from="J10" to="J21" priority="-1">
        <lane id="E16_0" index="0" allow="pedestrian" speed="13.89" length="185.00" width="2.00" shape="37.80,195.04 -114.61,271.55"/>
        <lane id="E16_1" index="1" disallow="pedestrian" speed="13.89" length="185.00" shape="36.63,192.72 -115.78,269.22"/>
        <lane id="E16_2" index="2" disallow="pedestrian" speed="13.89" length="185.00" shape="35.19,189.86 -117.22,266.36"/>
        <lane id="E16_3" index="3" disallow="pedestrian" speed="13.89" length="185.00" shape="33.76,187.00 -118.65,263.50"/>
    </edge>
    <edge id="E17" from="J22" to="J23" priority="-1">
        <lane id="E17_0" index="0" allow="pedestrian" speed="13.89" length="83.78" width="2.00" shape="173.94,131.37 211.31,191.36"/>
        <lane id="E17_1" index="1" disallow="pedestrian" speed="13.89" length="83.78" shape="171.74,132.75 209.11,192.73"/>
    </edge>
    <edge id="E18" from="J24" to="J25" priority="-1">
        <lane id="E18_0" index="0" allow="pedestrian" speed="13.89" length="85.12" width="2.00" shape="264.41,327.73 231.95,264.07"/>
        <lane id="E18_1" index="1" disallow="pedestrian" speed="13.89" length="85.12" shape="266.73,326.55 234.26,262.89"/>
    </edge>
    <edge id="E19" from="J26" to="J27" priority="-1">
        <lane id="E19_0" index="0" allow="pedestrian" speed="13.89" length="97.27" width="2.00" shape="110.51,263.54 184.47,224.88"/>
        <lane id="E19_1" index="1" disallow="pedestrian" speed="13.89" length="97.27" shape="111.72,265.84 185.68,227.18"/>
    </edge>
    <edge id="E5" from="J10" to="J26" priority="-1">
        <lane id="E5_0" index="0" allow="pedestrian" speed="13.89" length="109.03" width="2.00" shape="62.76,187.04 106.05,262.53"/>
        <lane id="E5_1" index="1" disallow="pedestrian" speed="13.89" length="109.03" shape="60.50,188.34 103.80,263.82"/>
        <lane id="E5_2" index="2" disallow="pedestrian" speed="13.89" length="109.03" shape="57.73,189.93 101.02,265.41"/>
        <lane id="E5_3" index="3" disallow="pedestrian" speed="13.89" length="109.03" shape="54.95,191.52 98.25,267.00"/>
    </edge>
    <edge id="E5.109" from="J26" to="J11" priority="-1">
        <lane id="E5.109_0" index="0" allow="pedestrian" speed="13.89" length="137.88" width="2.00" shape="113.22,275.03 171.37,376.41"/>
        <lane id="E5.109_1" index="1" disallow="pedestrian" speed="13.89" length="137.88" shape="110.97,276.32 169.12,377.70"/>
        <lane id="E5.109_2" index="2" disallow="pedestrian" speed="13.89" length="137.88" shape="108.19,277.91 166.34,379.30"/>
        <lane id="E5.109_3" index="3" disallow="pedestrian" speed="13.89" length="137.88" shape="105.41,279.50 163.56,380.89"/>
    </edge>
    <edge id="E6" from="J11" to="J12" priority="-1">
        <lane id="E6_0" index="0" allow="pedestrian" speed="13.89" length="64.81" width="2.00" shape="184.98,400.19 210.17,444.27"/>
        <lane id="E6_1" index="1" disallow="pedestrian" speed="13.89" length="64.81" shape="182.73,401.48 207.92,445.56"/>
        <lane id="E6_2" index="2" disallow="pedestrian" speed="13.89" length="64.81" shape="179.95,403.07 205.14,447.15"/>
        <lane id="E6_3" index="3" disallow="pedestrian" speed="13.89" length="64.81" shape="177.17,404.65 202.36,448.74"/>
    </edge>
    <edge id="E7" from="J11" to="J24" priority="-1">
        <lane id="E7_0" index="0" allow="pedestrian" speed="13.89" length="119.14" width="2.00" shape="176.33,377.36 263.17,331.88"/>
        <lane id="E7_1" index="1" disallow="pedestrian" speed="13.89" length="119.14" shape="177.54,379.66 264.38,334.18"/>
        <lane id="E7_2" index="2" disallow="pedestrian" speed="13.89" length="119.14" shape="179.02,382.50 265.87,337.02"/>
        <lane id="E7_3" index="3" disallow="pedestrian" speed="13.89" length="119.14" shape="180.51,385.33 267.35,339.85"/>
    </edge>
    <edge id="E7.119" from="J24" to="J13" priority="-1">
        <lane id="E7.119_0" index="0" allow="pedestrian" speed="13.89" length="140.97" width="2.00" shape="275.93,325.20 381.49,269.91"/>
        <lane id="E7.119_1" index="1" disallow="pedestrian" speed="13.89" length="140.97" shape="277.14,327.50 382.70,272.22"/>
        <lane id="E7.119_2" index="2" disallow="pedestrian" speed="13.89" length="140.97" shape="278.62,330.34 384.18,275.05"/>
        <lane id="E7.119_3" index="3" disallow="pedestrian" speed="13.89" length="140.97" shape="280.11,333.17 385.66,277.89"/>
    </edge>
    <edge id="E8" from="J10" to="J14" priority="-1" shape="45.97,179.08 59.41,171.61 146.22,128.89 277.91,65.08 302.38,53.84">
        <lane id="E8_0" index="0" allow="pedestrian" speed="13.89" length="285.39" width="2.00" shape="52.94,163.08 54.49,162.22 141.57,119.36 273.39,55.49 284.71,50.29"/>
        <lane id="E8_1" index="1" disallow="pedestrian" speed="13.89" length="285.39" shape="54.19,165.36 55.70,164.52 142.71,121.70 274.50,57.84 285.90,52.61"/>
        <lane id="E8_2" index="2" disallow="pedestrian" speed="13.89" length="285.39" shape="55.74,168.16 57.18,167.36 144.11,124.58 275.86,60.74 287.36,55.46"/>
        <lane id="E8_3" index="3" disallow="pedestrian" speed="13.89" length="285.39" shape="57.28,170.96 58.67,170.19 145.52,127.45 277.23,63.63 288.82,58.31"/>
    </edge>
    <edge id="E9" from="J13" to="J14" priority="-1">
        <lane id="E9_0" index="0" allow="pedestrian" speed="13.89" length="239.23" width="2.00" shape="383.68,263.61 297.95,70.03"/>
        <lane id="E9_1" index="1" disallow="pedestrian" speed="13.89" length="239.23" shape="386.05,262.56 300.33,68.98"/>
        <lane id="E9_2" index="2" disallow="pedestrian" speed="13.89" length="239.23" shape="388.98,261.26 303.26,67.68"/>
        <lane id="E9_3" index="3" disallow="pedestrian" speed="13.89" length="239.23" shape="391.91,259.97 306.18,66.39"/>
    </edge>

    <junction id="J10" type="priority" x="45.97" y="179.08" incLanes="-E50_0 -E50_1 -E50_2 -E50_3 -E8.147_0 -E8.147_1 -E8.147_2 -E8.147_3 -E14_0 -E14_1 -E14_2 -E14_3 -E16_0 -E16_1 -E16_2 -E16_3" intLanes="" shape="43.50,198.09 63.63,186.55 63.28,185.50 63.34,185.06 63.57,184.67 63.95,184.34 64.48,184.06 52.46,162.20 51.01,162.60 50.34,162.46 49.70,162.10 49.10,161.52 48.53,160.71 28.60,172.58 28.97,173.64 28.92,174.10 28.72,174.51 28.36,174.88 27.84,175.20 38.25,195.93 40.22,195.48 41.12,195.69 41.97,196.20 42.76,197.00">
        <request index="0"  response="00000000000000000000" foes="00000000000111000000"/>
        <request index="1"  response="00000000000000000000" foes="11111100001111000000"/>
        <request index="2"  response="00000000000000000000" foes="11111100001111000000"/>
        <request index="3"  response="00000000000000000000" foes="11111100001111000000"/>
        <request index="4"  response="00000011100000000000" foes="11110011101111000000"/>
        <request index="5"  response="00000011100000000000" foes="00000011100000000000"/>
        <request index="6"  response="00000111100000011111" foes="10000111100000011111"/>
        <request index="7"  response="00000111100000011111" foes="10000111100000011111"/>
        <request index="8"  response="00000111100000011111" foes="10000111100000011111"/>
        <request index="9"  response="01110111100000011110" foes="01110111100000011110"/>
        <request index="10" response="00000000000000000000" foes="01110000000000000000"/>
        <request index="11" response="00000000000000000000" foes="11110000001111110000"/>
        <request index="12" response="00000000000000000000" foes="11110000001111110000"/>
        <request index="13" response="00000000000000000000" foes="11110000001111110000"/>
        <request index="14" response="00000000000000001110" foes="11110000001111001110"/>
        <request index="15" response="00000000000000001110" foes="00000000000000001110"/>
        <request index="16" response="00000111110000011110" foes="00000111111000011110"/>
        <request index="17" response="00000111110000011110" foes="00000111111000011110"/>
        <request index="18" response="00000111110000011110" foes="00000111111000011110"/>
        <request index="19" response="00000111100111011110" foes="00000111100111011110"/>
    </junction>
    <junction id="J11" type="priority" x="168.82" y="393.26" incLanes="-E6_0 -E6_1 -E6_2 -E6_3 -E7_0 -E7_1 -E7_2 -E7_3 E5.109_0 E5.109_1 E5.109_2 E5.109_3 -E15_0 -E15_1 -E15_2 -E15_3" intLanes="" shape="165.71,411.20 185.85,399.69 185.50,398.62 185.55,398.16 185.76,397.74 186.12,397.36 186.63,397.03 175.87,376.48 174.33,377.00 173.69,377.00 173.12,376.82 172.64,376.45 172.24,375.91 152.11,387.45 152.43,388.56 152.32,389.08 152.04,389.58 151.58,390.05 150.94,390.50 162.92,410.36 164.00,410.00 164.48,410.06 164.92,410.28 165.33,410.66">
        <request index="0"  response="00000000000000000000" foes="00000000000111000000"/>
        <request index="1"  response="00000000000000000000" foes="11111100001111000000"/>
        <request index="2"  response="00000000000000000000" foes="11111100001111000000"/>
        <request index="3"  response="00000000000000000000" foes="11111100001111000000"/>
        <request index="4"  response="00000011100000000000" foes="11110011101111000000"/>
        <request index="5"  response="00000011100000000000" foes="00000011100000000000"/>
        <request index="6"  response="00000111100000011111" foes="10000111100000011111"/>
        <request index="7"  response="00000111100000011111" foes="10000111100000011111"/>
        <request index="8"  response="00000111100000011111" foes="10000111100000011111"/>
        <request index="9"  response="01110111100000011110" foes="01110111100000011110"/>
        <request index="10" response="00000000000000000000" foes="01110000000000000000"/>
        <request index="11" response="00000000000000000000" foes="11110000001111110000"/>
        <request index="12" response="00000000000000000000" foes="11110000001111110000"/>
        <request index="13" response="00000000000000000000" foes="11110000001111110000"/>
        <request index="14" response="00000000000000001110" foes="11110000001111001110"/>
        <request index="15" response="00000000000000001110" foes="00000000000000001110"/>
        <request index="16" response="00000111110000011110" foes="00000111111000011110"/>
        <request index="17" response="00000111110000011110" foes="00000111111000011110"/>
        <request index="18" response="00000111110000011110" foes="00000111111000011110"/>
        <request index="19" response="00000111100111011110" foes="00000111100111011110"/>
    </junction>
    <junction id="J12" type="dead_end" x="200.97" y="449.53" incLanes="E6_0 E6_1 E6_2 E6_3" intLanes="" shape="200.97,449.53 211.04,443.78 200.97,449.53"/>
    <junction id="J13" type="priority" x="399.24" y="272.58" incLanes="-E10_0 -E10_1 -E10_2 -E10_3 -E11_0 -E11_1 -E11_2 -E11_3 -E9_0 -E9_1 -E9_2 -E9_3 E7.119_0 E7.119_1 E7.119_2 E7.119_3" intLanes="" shape="394.36,290.49 415.64,281.27 415.18,279.12 415.35,278.19 415.80,277.35 416.52,276.60 417.51,275.95 406.55,255.51 405.48,255.83 405.02,255.76 404.62,255.53 404.27,255.15 403.97,254.62 382.76,264.01 383.22,266.05 383.06,266.93 382.65,267.72 381.97,268.42 381.02,269.03 391.79,289.58 392.86,289.27 393.32,289.34 393.72,289.57 394.06,289.95">
        <request index="0"  response="00000000000000000000" foes="00000000000111000000"/>
        <request index="1"  response="00000000000000000000" foes="11111100001111000000"/>
        <request index="2"  response="00000000000000000000" foes="11111100001111000000"/>
        <request index="3"  response="00000000000000000000" foes="11111100001111000000"/>
        <request index="4"  response="00000011100000000000" foes="11110011101111000000"/>
        <request index="5"  response="00000011100000000000" foes="00000011100000000000"/>
        <request index="6"  response="00000111100000011111" foes="10000111100000011111"/>
        <request index="7"  response="00000111100000011111" foes="10000111100000011111"/>
        <request index="8"  response="00000111100000011111" foes="10000111100000011111"/>
        <request index="9"  response="01110111100000011110" foes="01110111100000011110"/>
        <request index="10" response="00000000000000000000" foes="01110000000000000000"/>
        <request index="11" response="00000000000000000000" foes="11110000001111110000"/>
        <request index="12" response="00000000000000000000" foes="11110000001111110000"/>
        <request index="13" response="00000000000000000000" foes="11110000001111110000"/>
        <request index="14" response="00000000000000001110" foes="11110000001111001110"/>
        <request index="15" response="00000000000000001110" foes="00000000000000001110"/>
        <request index="16" response="00000111110000011110" foes="00000111111000011110"/>
        <request index="17" response="00000111110000011110" foes="00000111111000011110"/>
        <request index="18" response="00000111110000011110" foes="00000111111000011110"/>
        <request index="19" response="00000111100111011110" foes="00000111100111011110"/>
    </junction>
    <junction id="J14" type="priority" x="302.38" y="53.84" incLanes="E9_0 E9_1 E9_2 E9_3 -E13_0 -E13_1 -E13_2 -E13_3 -E12_0 -E12_1 -E12_2 -E12_3 E8_0 E8_1 E8_2 E8_3" intLanes="" shape="297.04,70.43 318.25,61.04 318.11,59.87 318.35,59.31 318.78,58.78 319.42,58.27 320.25,57.79 309.77,37.09 308.69,37.39 308.23,37.31 307.82,37.08 307.47,36.70 307.17,36.17 286.00,45.66 286.29,47.16 286.11,47.81 285.71,48.41 285.09,48.93 284.25,49.40 293.67,67.76 294.83,67.65 295.40,67.97 295.96,68.54 296.50,69.36">
        <request index="0"  response="0000000000000000000" foes="0000000000011000000"/>
        <request index="1"  response="0000000000000000000" foes="1111110000111000000"/>
        <request index="2"  response="0000000000000000000" foes="1111110000111000000"/>
        <request index="3"  response="0000000000000000000" foes="1111110000111000000"/>
        <request index="4"  response="0000001110000000000" foes="1111001110111000000"/>
        <request index="5"  response="0000001110000000000" foes="0000001110000000000"/>
        <request index="6"  response="0000011110000011111" foes="1000011110000011111"/>
        <request index="7"  response="0000011110000011111" foes="1000011110000011111"/>
        <request index="8"  response="0111011110000011110" foes="0111011110000011110"/>
        <request index="9"  response="0000000000000000000" foes="0111000000000000000"/>
        <request index="10" response="0000000000000000000" foes="1111000000111110000"/>
        <request index="11" response="0000000000000000000" foes="1111000000111110000"/>
        <request index="12" response="0000000000000000000" foes="1111000000111110000"/>
        <request index="13" response="0000000000000001110" foes="1111000000111001110"/>
        <request index="14" response="0000000000000001110" foes="0000000000000001110"/>
        <request index="15" response="0000011111000011110" foes="0000011111100011110"/>
        <request index="16" response="0000011111000011110" foes="0000011111100011110"/>
        <request index="17" response="0000011111000011110" foes="0000011111100011110"/>
        <request index="18" response="0000011110011011110" foes="0000011110011011110"/>
    </junction>
    <junction id="J15" type="dead_end" x="433.32" y="351.27" incLanes="E10_0 E10_1 E10_2 E10_3" intLanes="" shape="433.32,351.27 443.96,346.66 433.32,351.27"/>
    <junction id="J16" type="dead_end" x="531.31" y="201.80" incLanes="E11_0 E11_1 E11_2 E11_3" intLanes="" shape="531.31,201.80 525.83,191.58 531.31,201.80"/>
    <junction id="J17" type="dead_end" x="252.22" y="-58.06" incLanes="E12_0 E12_1 E12_2 E12_3" intLanes="" shape="252.22,-58.06 241.64,-53.31 252.22,-58.06"/>
    <junction id="J18" type="dead_end" x="433.94" y="-12.78" incLanes="E13_0 E13_1 E13_2 E13_3" intLanes="" shape="433.94,-12.78 428.70,-23.13 433.94,-12.78"/>