<?xml version="1.0" encoding="UTF-8"?>

<!-- generated on 2023-11-09 21:20:13 by Eclipse SUMO sumo Version 1.19.0
-->

<configuration xmlns:xsi="http://www.w3.org/2001/XMLSchema-instance" xsi:noNamespaceSchemaLocation="http://sumo.dlr.de/xsd/sumoConfiguration.xsd">

    <input>
        <net-file value="1.net.xml"/>
        <route-files value="1.rou.xml"/>
    </input>

</configuration>
