<?xml version="1.0" encoding="UTF-8"?>

<!-- generated on 2023-11-21 12:00:01 by Eclipse SUMO netedit Version 1.19.0
<configuration xmlns:xsi="http://www.w3.org/2001/XMLSchema-instance" xsi:noNamespaceSchemaLocation="http://sumo.dlr.de/xsd/neteditConfiguration.xsd">

    <input>
        <additional-files value="taz.add.xml"/>
        <sumo-net-file value="basic.net.xml"/>
    </input>

    <output>
        <output-file value="basic.net.xml"/>
    </output>

    <processing>
        <geometry.min-radius.fix.railways value="false"/>
        <geometry.max-grade.fix value="false"/>
        <offset.disable-normalization value="true"/>
        <lefthand value="0"/>
    </processing>

    <junctions>
        <no-turnarounds value="true"/>
        <junctions.corner-detail value="5"/>
        <junctions.limit-turn-speed value="5.50"/>
        <rectangular-lane-cut value="0"/>
    </junctions>

    <pedestrian>
        <walkingareas value="0"/>
    </pedestrian>

    <visualisation>
        <gui-settings-file value="background/background_config.xml"/>
    </visualisation>

</configuration>
-->

<net version="1.16" junctionCornerDetail="5" limitTurnSpeed="5.50" xmlns:xsi="http://www.w3.org/2001/XMLSchema-instance" xsi:noNamespaceSchemaLocation="http://sumo.dlr.de/xsd/net_file.xsd">

    <location netOffset="0.00,0.00" convBoundary="-1387.22,-1511.96,1618.93,1632.95" origBoundary="-10000000000.00,-10000000000.00,10000000000.00,10000000000.00" projParameter="!"/>

    <edge id=":J0_0" function="internal">
        <lane id=":J0_0_0" index="0" speed="6.43" length="8.88" width="3.00" shape="315.50,838.13 314.63,835.85 313.25,834.40 311.34,833.78 308.91,833.97"/>
    </edge>
    <edge id=":J0_1" function="internal">
        <lane id=":J0_1_0" index="0" speed="11.11" length="14.01" width="3.00" shape="315.50,838.13 312.37,824.47"/>
    </edge>
    <edge id=":J0_2" function="internal">
        <lane id=":J0_2_0" index="0" speed="7.89" length="13.73" width="3.00" shape="315.50,838.13 315.20,834.38 316.17,831.43 318.40,829.27 321.90,827.91"/>
    </edge>
    <edge id=":J0_3" function="internal">
        <lane id=":J0_3_0" index="0" speed="6.47" length="8.92" width="3.00" shape="322.59,830.83 320.31,831.72 318.86,833.12 318.23,835.04 318.42,837.47"/>
    </edge>
    <edge id=":J0_4" function="internal">
        <lane id=":J0_4_0" index="0" speed="11.11" length="14.03" width="3.00" shape="322.59,830.83 308.91,833.97"/>
    </edge>
    <edge id=":J0_5" function="internal">
        <lane id=":J0_5_0" index="0" speed="7.86" length="3.76" width="3.00" shape="322.59,830.83 318.84,831.16"/>
    </edge>
    <edge id=":J0_12" function="internal">
        <lane id=":J0_12_0" index="0" speed="7.86" length="9.97" width="3.00" shape="318.84,831.16 315.89,830.20 313.74,827.97 312.37,824.47"/>
    </edge>
    <edge id=":J0_6" function="internal">
        <lane id=":J0_6_0" index="0" speed="6.44" length="8.89" width="3.00" shape="315.29,823.78 316.17,826.06 317.57,827.50 319.48,828.12 321.90,827.91"/>
    </edge>
    <edge id=":J0_7" function="internal">
        <lane id=":J0_7_0" index="0" speed="11.11" length="14.05" width="3.00" shape="315.29,823.78 318.42,837.47"/>
    </edge>
    <edge id=":J0_8" function="internal">
        <lane id=":J0_8_0" index="0" speed="7.84" length="13.73" width="3.00" shape="315.29,823.78 315.62,827.53 314.67,830.48 312.43,832.63 308.91,833.97"/>
    </edge>
    <edge id=":J0_9" function="internal">
        <lane id=":J0_9_0" index="0" speed="6.42" length="8.87" width="3.00" shape="308.25,831.05 310.52,830.18 311.97,828.79 312.58,826.89 312.37,824.47"/>
    </edge>
    <edge id=":J0_10" function="internal">
        <lane id=":J0_10_0" index="0" speed="11.11" length="14.01" width="3.00" shape="308.25,831.05 321.90,827.91"/>
    </edge>
    <edge id=":J0_11" function="internal">
        <lane id=":J0_11_0" index="0" speed="7.85" length="3.77" width="3.00" shape="308.25,831.05 312.00,830.74"/>
    </edge>
    <edge id=":J0_13" function="internal">
        <lane id=":J0_13_0" index="0" speed="7.85" length="9.96" width="3.00" shape="312.00,830.74 314.95,831.71 317.09,833.96 318.42,837.47"/>
    </edge>
    <edge id=":J1_0" function="internal">
        <lane id=":J1_0_0" index="0" speed="6.40" length="8.87" width="3.00" shape="752.22,733.76 751.33,731.49 749.93,730.06 748.02,729.47 745.60,729.72"/>
    </edge>
    <edge id=":J1_1" function="internal">
        <lane id=":J1_1_0" index="0" speed="7.87" length="13.74" width="3.00" shape="752.22,733.76 751.88,730.00 752.82,727.03 755.03,724.86 758.52,723.48"/>
    </edge>
    <edge id=":J1_2" function="internal">
        <lane id=":J1_2_0" index="0" speed="6.45" length="8.91" width="3.00" shape="759.22,726.40 756.96,727.29 755.53,728.70 754.92,730.63 755.14,733.07"/>
    </edge>
    <edge id=":J1_3" function="internal">
        <lane id=":J1_3_0" index="0" speed="11.11" length="14.02" width="3.00" shape="759.22,726.40 745.60,729.72"/>
    </edge>
    <edge id=":J1_4" function="internal">
        <lane id=":J1_4_0" index="0" speed="11.11" length="14.05" width="3.00" shape="744.88,726.81 758.52,723.48"/>
    </edge>
    <edge id=":J1_5" function="internal">
        <lane id=":J1_5_0" index="0" speed="7.83" length="3.78" width="3.00" shape="744.88,726.81 748.63,726.42"/>
    </edge>
    <edge id=":J1_6" function="internal">
        <lane id=":J1_6_0" index="0" speed="7.83" length="9.98" width="3.00" shape="748.63,726.42 751.60,727.34 753.77,729.55 755.14,733.07"/>
    </edge>
    <edge id=":J104_0" function="internal">
        <lane id=":J104_0_0" index="0" speed="6.43" length="8.87" width="3.00" shape="585.38,987.67 584.50,985.40 583.10,983.96 581.19,983.35 578.77,983.57"/>
    </edge>
    <edge id=":J104_1" function="internal">
        <lane id=":J104_1_0" index="0" speed="11.11" length="14.04" width="3.00" shape="585.38,987.67 582.20,974.00"/>
    </edge>
    <edge id=":J104_2" function="internal">
        <lane id=":J104_2_0" index="0" speed="7.89" length="3.76" width="3.00" shape="585.38,987.67 585.05,983.92"/>
    </edge>
    <edge id=":J104_12" function="internal">
        <lane id=":J104_12_0" index="0" speed="7.89" length="9.99" width="3.00" shape="585.05,983.92 586.00,980.96 588.23,978.78 591.73,977.39"/>
    </edge>
    <edge id=":J104_3" function="internal">
        <lane id=":J104_3_0" index="0" speed="6.48" length="8.94" width="3.00" shape="592.43,980.31 590.15,981.21 588.71,982.63 588.09,984.55 588.30,986.99"/>
    </edge>
    <edge id=":J104_4" function="internal">
        <lane id=":J104_4_0" index="0" speed="11.11" length="14.04" width="3.00" shape="592.43,980.31 578.77,983.57"/>
    </edge>
    <edge id=":J104_5" function="internal">
        <lane id=":J104_5_0" index="0" speed="7.84" length="13.74" width="3.00" shape="592.43,980.31 588.68,980.67 585.72,979.73 583.56,977.51 582.20,974.00"/>
    </edge>
    <edge id=":J104_6" function="internal">
        <lane id=":J104_6_0" index="0" speed="6.41" length="8.87" width="3.00" shape="585.12,973.32 586.00,975.59 587.40,977.02 589.30,977.62 591.73,977.39"/>
    </edge>
    <edge id=":J104_7" function="internal">
        <lane id=":J104_7_0" index="0" speed="11.11" length="14.04" width="3.00" shape="585.12,973.32 588.30,986.99"/>
    </edge>
    <edge id=":J104_8" function="internal">
        <lane id=":J104_8_0" index="0" speed="7.87" length="3.77" width="3.00" shape="585.12,973.32 585.45,977.07"/>
    </edge>
    <edge id=":J104_13" function="internal">
        <lane id=":J104_13_0" index="0" speed="7.87" length="9.97" width="3.00" shape="585.45,977.07 584.50,980.03 582.27,982.20 578.77,983.57"/>
    </edge>
    <edge id=":J104_9" function="internal">
        <lane id=":J104_9_0" index="0" speed="6.46" length="8.92" width="3.00" shape="578.08,980.65 580.35,979.76 581.80,978.35 582.41,976.43 582.20,974.00"/>
    </edge>
    <edge id=":J104_10" function="internal">
        <lane id=":J104_10_0" index="0" speed="11.11" length="14.03" width="3.00" shape="578.08,980.65 591.73,977.39"/>
    </edge>
    <edge id=":J104_11" function="internal">
        <lane id=":J104_11_0" index="0" speed="7.85" length="13.72" width="3.00" shape="578.08,980.65 581.83,980.31 584.78,981.26 586.94,983.48 588.30,986.99"/>
    </edge>
    <edge id=":J106_0" function="internal">
        <lane id=":J106_0_0" index="0" speed="6.40" length="8.87" width="3.00" shape="138.10,1094.21 137.24,1091.93 135.85,1090.49 133.95,1089.89 131.52,1090.12"/>
    </edge>
    <edge id=":J106_1" function="internal">
        <lane id=":J106_1_0" index="0" speed="11.11" length="14.07" width="3.00" shape="138.10,1094.21 135.02,1080.48"/>
    </edge>
    <edge id=":J106_2" function="internal">
        <lane id=":J106_2_0" index="0" speed="7.89" length="3.78" width="3.00" shape="138.10,1094.21 137.80,1090.44"/>
    </edge>
    <edge id=":J106_12" function="internal">
        <lane id=":J106_12_0" index="0" speed="7.89" length="9.99" width="3.00" shape="137.80,1090.44 138.77,1087.48 141.01,1085.32 144.52,1083.96"/>
    </edge>
    <edge id=":J106_3" function="internal">
        <lane id=":J106_3_0" index="0" speed="6.47" length="8.95" width="3.00" shape="145.19,1086.89 142.92,1087.77 141.46,1089.17 140.83,1091.10 141.03,1093.55"/>
    </edge>
    <edge id=":J106_4" function="internal">
        <lane id=":J106_4_0" index="0" speed="11.11" length="14.05" width="3.00" shape="145.19,1086.89 131.52,1090.12"/>
    </edge>
    <edge id=":J106_5" function="internal">
        <lane id=":J106_5_0" index="0" speed="7.85" length="13.73" width="3.00" shape="145.19,1086.89 141.44,1087.20 138.50,1086.24 136.36,1084.00 135.02,1080.48"/>
    </edge>
    <edge id=":J106_6" function="internal">
        <lane id=":J106_6_0" index="0" speed="6.42" length="8.87" width="3.00" shape="137.95,1079.82 138.81,1082.10 140.19,1083.55 142.10,1084.17 144.52,1083.96"/>
    </edge>
    <edge id=":J106_7" function="internal">
        <lane id=":J106_7_0" index="0" speed="11.11" length="14.07" width="3.00" shape="137.95,1079.82 141.03,1093.55"/>
    </edge>
    <edge id=":J106_8" function="internal">
        <lane id=":J106_8_0" index="0" speed="7.93" length="3.76" width="3.00" shape="137.95,1079.82 138.24,1083.58"/>
    </edge>
    <edge id=":J106_13" function="internal">
        <lane id=":J106_13_0" index="0" speed="7.93" length="10.02" width="3.00" shape="138.24,1083.58 137.27,1086.54 135.03,1088.72 131.52,1090.12"/>
    </edge>
    <edge id=":J106_9" function="internal">
        <lane id=":J106_9_0" index="0" speed="6.52" length="9.01" width="3.00" shape="130.81,1087.20 133.11,1086.29 134.58,1084.87 135.21,1082.93 135.02,1080.48"/>
    </edge>
    <edge id=":J106_10" function="internal">
        <lane id=":J106_10_0" index="0" speed="11.11" length="14.09" width="3.00" shape="130.81,1087.20 144.52,1083.96"/>
    </edge>
    <edge id=":J106_11" function="internal">
        <lane id=":J106_11_0" index="0" speed="7.83" length="13.77" width="3.00" shape="130.81,1087.20 134.58,1086.84 137.54,1087.78 139.68,1090.02 141.03,1093.55"/>
    </edge>
    <edge id=":J108_0" function="internal">
        <lane id=":J108_0_0" index="0" speed="6.44" length="8.89" width="3.00" shape="141.32,878.28 140.42,876.01 139.02,874.57 137.10,873.96 134.68,874.18"/>
    </edge>
    <edge id=":J108_1" function="internal">
        <lane id=":J108_1_0" index="0" speed="7.84" length="13.74" width="3.00" shape="141.32,878.28 140.97,874.53 141.91,871.57 144.13,869.41 147.64,868.05"/>
    </edge>
    <edge id=":J108_2" function="internal">
        <lane id=":J108_2_0" index="0" speed="6.42" length="8.87" width="3.00" shape="148.32,870.98 146.05,871.85 144.62,873.25 144.01,875.16 144.24,877.58"/>
    </edge>
    <edge id=":J108_3" function="internal">
        <lane id=":J108_3_0" index="0" speed="11.11" length="14.01" width="3.00" shape="148.32,870.98 134.68,874.18"/>
    </edge>
    <edge id=":J108_4" function="internal">
        <lane id=":J108_4_0" index="0" speed="11.11" length="14.03" width="3.00" shape="133.99,871.26 147.64,868.05"/>
    </edge>
    <edge id=":J108_5" function="internal">
        <lane id=":J108_5_0" index="0" speed="7.87" length="3.75" width="3.00" shape="133.99,871.26 137.73,870.92"/>
    </edge>
    <edge id=":J108_6" function="internal">
        <lane id=":J108_6_0" index="0" speed="7.87" length="9.97" width="3.00" shape="137.73,870.92 140.68,871.86 142.85,874.08 144.24,877.58"/>
    </edge>
    <edge id=":J11_0" function="internal">
        <lane id=":J11_0_0" index="0" speed="6.55" length="9.16" width="3.75" shape="899.52,997.21 898.60,994.78 897.19,993.21 895.28,992.51 892.87,992.67"/>
    </edge>
    <edge id=":J11_1" function="internal">
        <lane id=":J11_1_0" index="0" speed="6.61" length="9.11" width="3.00" shape="906.41,989.56 904.17,990.48 902.77,991.95 902.19,993.96 902.44,996.52"/>
    </edge>
    <edge id=":J11_2" function="internal">
        <lane id=":J11_2_0" index="0" speed="16.67" length="13.82" width="3.75" shape="906.41,989.56 892.87,992.67"/>
        <lane id=":J11_2_1" index="1" speed="16.67" length="13.82" width="3.75" shape="905.52,985.92 892.05,989.01"/>
        <lane id=":J11_2_2" index="2" speed="16.67" length="13.82" width="3.75" shape="904.63,982.27 891.23,985.35"/>
    </edge>
    <edge id=":J111_0" function="internal">
        <lane id=":J111_0_0" index="0" speed="6.43" length="8.87" width="3.00" shape="799.75,935.92 798.87,933.66 797.47,932.22 795.56,931.61 793.14,931.83"/>
    </edge>
    <edge id=":J111_1" function="internal">
        <lane id=":J111_1_0" index="0" speed="11.11" length="14.02" width="3.00" shape="799.75,935.92 796.54,922.27"/>
    </edge>
    <edge id=":J111_2" function="internal">
        <lane id=":J111_2_0" index="0" speed="7.88" length="3.76" width="3.00" shape="799.75,935.92 799.42,932.18"/>
    </edge>
    <edge id=":J111_12" function="internal">
        <lane id=":J111_12_0" index="0" speed="7.88" length="9.98" width="3.00" shape="799.42,932.18 800.36,929.22 802.58,927.05 806.08,925.66"/>
    </edge>
    <edge id=":J111_3" function="internal">
        <lane id=":J111_3_0" index="0" speed="6.46" length="8.91" width="3.00" shape="806.78,928.57 804.51,929.47 803.07,930.89 802.46,932.80 802.67,935.23"/>
    </edge>
    <edge id=":J111_4" function="internal">
        <lane id=":J111_4_0" index="0" speed="11.11" length="14.03" width="3.00" shape="806.78,928.57 793.14,931.83"/>
    </edge>
    <edge id=":J111_5" function="internal">
        <lane id=":J111_5_0" index="0" speed="7.85" length="13.73" width="3.00" shape="806.78,928.57 803.04,928.93 800.08,928.00 797.92,925.78 796.54,922.27"/>
    </edge>
    <edge id=":J111_6" function="internal">
        <lane id=":J111_6_0" index="0" speed="6.42" length="8.87" width="3.00" shape="799.46,921.59 800.35,923.85 801.75,925.28 803.66,925.89 806.08,925.66"/>
    </edge>
    <edge id=":J111_7" function="internal">
        <lane id=":J111_7_0" index="0" speed="11.11" length="14.02" width="3.00" shape="799.46,921.59 802.67,935.23"/>
    </edge>
    <edge id=":J111_8" function="internal">
        <lane id=":J111_8_0" index="0" speed="7.86" length="3.76" width="3.00" shape="799.46,921.59 799.80,925.33"/>
    </edge>
    <edge id=":J111_13" function="internal">
        <lane id=":J111_13_0" index="0" speed="7.86" length="9.96" width="3.00" shape="799.80,925.33 798.86,928.29 796.64,930.45 793.14,931.83"/>
    </edge>
    <edge id=":J111_9" function="internal">
        <lane id=":J111_9_0" index="0" speed="6.44" length="8.89" width="3.00" shape="792.45,928.91 794.72,928.02 796.15,926.62 796.76,924.70 796.54,922.27"/>
    </edge>
    <edge id=":J111_10" function="internal">
        <lane id=":J111_10_0" index="0" speed="11.11" length="14.01" width="3.00" shape="792.45,928.91 806.08,925.66"/>
    </edge>
    <edge id=":J111_11" function="internal">
        <lane id=":J111_11_0" index="0" speed="7.86" length="13.71" width="3.00" shape="792.45,928.91 796.19,928.57 799.14,929.51 801.30,931.73 802.67,935.23"/>
    </edge>
    <edge id=":J112_0" function="internal">
        <lane id=":J112_0_0" index="0" speed="6.39" length="8.87" width="3.00" shape="360.90,1041.04 360.04,1038.76 358.65,1037.33 356.75,1036.73 354.32,1036.97"/>
    </edge>
    <edge id=":J112_1" function="internal">
        <lane id=":J112_1_0" index="0" speed="11.11" length="14.10" width="3.00" shape="360.90,1041.04 357.82,1027.28"/>
    </edge>
    <edge id=":J112_2" function="internal">
        <lane id=":J112_2_0" index="0" speed="7.92" length="3.78" width="3.00" shape="360.90,1041.04 360.60,1037.27"/>
    </edge>
    <edge id=":J112_12" function="internal">
        <lane id=":J112_12_0" index="0" speed="7.92" length="10.03" width="3.00" shape="360.60,1037.27 361.57,1034.30 363.81,1032.12 367.32,1030.74"/>
    </edge>
    <edge id=":J112_3" function="internal">
        <lane id=":J112_3_0" index="0" speed="6.51" length="9.01" width="3.00" shape="368.01,1033.65 365.73,1034.56 364.27,1035.98 363.63,1037.92 363.83,1040.38"/>
    </edge>
    <edge id=":J112_4" function="internal">
        <lane id=":J112_4_0" index="0" speed="11.11" length="14.09" width="3.00" shape="368.01,1033.65 354.32,1036.97"/>
    </edge>
    <edge id=":J112_5" function="internal">
        <lane id=":J112_5_0" index="0" speed="7.83" length="13.75" width="3.00" shape="368.01,1033.65 364.25,1034.00 361.30,1033.05 359.16,1030.81 357.82,1027.28"/>
    </edge>
    <edge id=":J112_6" function="internal">
        <lane id=":J112_6_0" index="0" speed="6.41" length="8.87" width="3.00" shape="360.75,1026.62 361.61,1028.90 362.99,1030.34 364.90,1030.96 367.32,1030.74"/>
    </edge>
    <edge id=":J112_7" function="internal">
        <lane id=":J112_7_0" index="0" speed="11.11" length="14.10" width="3.00" shape="360.75,1026.62 363.83,1040.38"/>
    </edge>
    <edge id=":J112_8" function="internal">
        <lane id=":J112_8_0" index="0" speed="7.95" length="3.77" width="3.00" shape="360.75,1026.62 361.04,1030.38"/>
    </edge>
    <edge id=":J112_13" function="internal">
        <lane id=":J112_13_0" index="0" speed="7.95" length="10.05" width="3.00" shape="361.04,1030.38 360.07,1033.36 357.83,1035.56 354.32,1036.97"/>
    </edge>
    <edge id=":J112_9" function="internal">
        <lane id=":J112_9_0" index="0" speed="6.55" length="9.06" width="3.00" shape="353.60,1034.06 355.90,1033.13 357.37,1031.69 358.01,1029.74 357.82,1027.28"/>
    </edge>
    <edge id=":J112_10" function="internal">
        <lane id=":J112_10_0" index="0" speed="11.11" length="14.12" width="3.00" shape="353.60,1034.06 367.32,1030.74"/>
    </edge>
    <edge id=":J112_11" function="internal">
        <lane id=":J112_11_0" index="0" speed="7.82" length="13.78" width="3.00" shape="353.60,1034.06 357.37,1033.68 360.33,1034.61 362.49,1036.84 363.83,1040.38"/>
    </edge>
    <edge id=":J116_0" function="internal">
        <lane id=":J116_0_0" index="0" speed="15.28" length="28.28" width="3.75" shape="-818.40,-854.53 -818.01,-850.10 -816.19,-844.21 -813.39,-836.75 -810.06,-827.63"/>
    </edge>
    <edge id=":J116_1" function="internal">
        <lane id=":J116_1_0" index="0" speed="16.67" length="27.12" width="3.75" shape="-823.07,-851.98 -813.61,-826.41"/>
        <lane id=":J116_1_1" index="1" speed="16.67" length="27.12" width="3.75" shape="-826.57,-850.62 -817.15,-825.19"/>
        <lane id=":J116_1_2" index="2" speed="16.67" length="27.12" width="3.75" shape="-830.06,-849.26 -820.70,-823.97"/>
    </edge>
    <edge id=":J117_0" function="internal">
        <lane id=":J117_0_0" index="0" speed="15.28" length="36.23" width="3.75" shape="-845.95,-833.79 -849.94,-845.77 -853.23,-855.75 -856.05,-863.21 -858.67,-867.61"/>
    </edge>
    <edge id=":J117_1" function="internal">
        <lane id=":J117_1_0" index="0" speed="16.67" length="37.83" width="3.75" shape="-842.41,-835.02 -855.19,-870.55"/>
        <lane id=":J117_1_1" index="1" speed="16.67" length="37.83" width="3.75" shape="-838.87,-836.25 -851.68,-871.85"/>
        <lane id=":J117_1_2" index="2" speed="16.67" length="37.83" width="3.75" shape="-835.32,-837.48 -848.16,-873.14"/>
    </edge>
    <edge id=":J118_0" function="internal">
        <lane id=":J118_0_0" index="0" speed="6.24" length="8.87" width="3.00" shape="24.12,79.95 23.17,77.68 21.74,76.33 19.81,75.90 17.40,76.39"/>
    </edge>
    <edge id=":J118_1" function="internal">
        <lane id=":J118_1_0" index="0" speed="8.19" length="13.84" width="3.00" shape="24.12,79.95 23.65,76.11 24.39,72.98 26.36,70.54 29.53,68.79"/>
    </edge>
    <edge id=":J118_2" function="internal">
        <lane id=":J118_2_0" index="0" speed="6.83" length="9.35" width="3.00" shape="30.57,71.61 28.46,72.78 27.17,74.43 26.69,76.57 27.03,79.19"/>
    </edge>
    <edge id=":J118_3" function="internal">
        <lane id=":J118_3_0" index="0" speed="11.11" length="14.01" width="3.00" shape="30.57,71.61 17.40,76.39"/>
    </edge>
    <edge id=":J118_4" function="internal">
        <lane id=":J118_4_0" index="0" speed="11.11" length="13.99" width="3.00" shape="16.39,73.56 29.53,68.79"/>
    </edge>
    <edge id=":J118_5" function="internal">
        <lane id=":J118_5_0" index="0" speed="7.70" length="3.89" width="3.00" shape="16.39,73.56 20.20,72.79"/>
    </edge>
    <edge id=":J118_6" function="internal">
        <lane id=":J118_6_0" index="0" speed="7.70" length="10.14" width="3.00" shape="20.20,72.79 23.25,73.47 25.52,75.60 27.03,79.19"/>
    </edge>
    <edge id=":J122_0" function="internal">
        <lane id=":J122_0_0" index="0" speed="6.43" length="8.87" width="3.00" shape="-567.60,-904.47 -567.95,-906.88 -568.98,-908.59 -570.69,-909.63 -573.10,-909.97"/>
    </edge>
    <edge id=":J122_1" function="internal">
        <lane id=":J122_1_0" index="0" speed="11.11" length="14.00" width="3.00" shape="-567.60,-904.47 -567.60,-918.47"/>
    </edge>
    <edge id=":J122_2" function="internal">
        <lane id=":J122_2_0" index="0" speed="11.11" length="14.00" width="3.00" shape="-564.60,-918.47 -564.60,-904.47"/>
    </edge>
    <edge id=":J122_3" function="internal">
        <lane id=":J122_3_0" index="0" speed="7.86" length="3.76" width="3.00" shape="-564.60,-918.47 -565.13,-914.75"/>
    </edge>
    <edge id=":J122_6" function="internal">
        <lane id=":J122_6_0" index="0" speed="7.86" length="9.95" width="3.00" shape="-565.13,-914.75 -566.72,-912.09 -569.38,-910.50 -573.10,-909.97"/>
    </edge>
    <edge id=":J122_4" function="internal">
        <lane id=":J122_4_0" index="0" speed="6.44" length="8.87" width="3.00" shape="-573.10,-912.97 -570.69,-913.31 -568.97,-914.34 -567.94,-916.06 -567.60,-918.47"/>
    </edge>
    <edge id=":J122_5" function="internal">
        <lane id=":J122_5_0" index="0" speed="7.86" length="13.71" width="3.00" shape="-573.10,-912.97 -569.38,-912.44 -566.73,-910.84 -565.13,-908.19 -564.60,-904.47"/>
    </edge>
    <edge id=":J124_0" function="internal">
        <lane id=":J124_0_0" index="0" speed="16.67" length="24.93" width="3.75" shape="476.83,1091.45 452.61,1097.00"/>
        <lane id=":J124_0_1" index="1" speed="16.67" length="24.93" width="3.75" shape="475.98,1087.80 451.77,1093.35"/>
        <lane id=":J124_0_2" index="2" speed="16.67" length="24.93" width="3.75" shape="475.13,1084.15 450.93,1089.69"/>
        <lane id=":J124_0_3" index="3" speed="16.67" length="24.93" width="3.75" shape="475.13,1084.15 467.78,1085.24 462.62,1085.10 457.45,1084.96 450.09,1086.04"/>
    </edge>
    <edge id=":J125_0" function="internal">
        <lane id=":J125_0_0" index="0" speed="16.67" length="23.82" width="3.75" shape="78.07,1193.67 55.37,1200.55"/>
        <lane id=":J125_0_1" index="1" speed="16.67" length="23.82" width="3.75" shape="76.98,1190.08 54.27,1196.96"/>
        <lane id=":J125_0_2" index="2" speed="16.67" length="23.82" width="3.75" shape="75.88,1186.49 53.18,1193.38"/>
        <lane id=":J125_0_3" index="3" speed="16.67" length="23.82" width="3.75" shape="75.88,1186.49 68.93,1188.00 63.98,1188.15 59.04,1188.29 52.09,1189.79"/>
    </edge>
    <edge id=":J126_0" function="internal">
        <lane id=":J126_0_0" index="0" speed="16.67" length="27.35" width="3.75" shape="887.70,993.83 861.16,999.84"/>
        <lane id=":J126_0_1" index="1" speed="16.67" length="27.35" width="3.75" shape="886.88,990.17 860.30,996.19"/>
        <lane id=":J126_0_2" index="2" speed="16.67" length="27.35" width="3.75" shape="886.06,986.51 859.45,992.54"/>
        <lane id=":J126_0_3" index="3" speed="16.67" length="27.35" width="3.75" shape="886.06,986.51 877.98,987.71 872.31,987.64 866.65,987.61 858.59,988.89"/>
    </edge>
    <edge id=":J127_0" function="internal">
        <lane id=":J127_0_0" index="0" speed="16.67" length="23.01" width="3.75" shape="-52.50,1403.83 -59.14,1381.89"/>
        <lane id=":J127_0_1" index="1" speed="16.67" length="23.01" width="3.75" shape="-48.91,1402.74 -55.55,1380.81"/>
        <lane id=":J127_0_2" index="2" speed="16.67" length="23.01" width="3.75" shape="-45.32,1401.65 -51.96,1379.73"/>
        <lane id=":J127_0_3" index="3" speed="16.67" length="23.01" width="3.75" shape="-45.32,1401.65 -46.75,1394.94 -46.86,1390.16 -46.96,1385.37 -48.37,1378.65"/>
    </edge>
    <edge id=":J128_0" function="internal">
        <lane id=":J128_0_0" index="0" speed="16.67" length="23.63" width="3.75" shape="-131.91,1078.58 -124.02,1100.74"/>
        <lane id=":J128_0_1" index="1" speed="16.67" length="23.63" width="3.75" shape="-135.45,1079.81 -127.56,1101.99"/>
        <lane id=":J128_0_2" index="2" speed="16.67" length="23.63" width="3.75" shape="-138.99,1081.05 -131.10,1103.24"/>
        <lane id=":J128_0_3" index="3" speed="16.67" length="23.63" width="3.75" shape="-138.99,1081.05 -137.21,1087.88 -136.82,1092.77 -136.43,1097.66 -134.63,1104.49"/>
    </edge>
    <edge id=":J129_0" function="internal">
        <lane id=":J129_0_0" index="0" speed="16.67" length="20.51" width="3.75" shape="-253.23,811.77 -260.14,792.55"/>
        <lane id=":J129_0_1" index="1" speed="16.67" length="20.51" width="3.75" shape="-249.70,810.51 -256.60,791.30"/>
        <lane id=":J129_0_2" index="2" speed="16.67" length="20.51" width="3.75" shape="-246.17,809.24 -253.07,790.05"/>
        <lane id=":J129_0_3" index="3" speed="16.67" length="20.51" width="3.75" shape="-246.17,809.24 -247.69,803.31 -247.87,799.03 -248.04,794.75 -249.53,788.80"/>
    </edge>
    <edge id=":J13_0" function="internal">
        <lane id=":J13_0_0" index="0" speed="6.29" length="9.20" width="3.75" shape="1285.03,861.61 1285.75,864.15 1287.06,865.75 1288.95,866.41 1291.43,866.14"/>
    </edge>
    <edge id=":J13_1" function="internal">
        <lane id=":J13_1_0" index="0" speed="7.07" length="9.76" width="3.00" shape="1277.84,869.73 1280.03,868.75 1281.46,867.14 1282.14,864.90 1282.06,862.03"/>
    </edge>
    <edge id=":J13_2" function="internal">
        <lane id=":J13_2_0" index="0" speed="16.67" length="14.09" width="3.75" shape="1277.84,869.73 1291.43,866.14"/>
        <lane id=":J13_2_1" index="1" speed="16.67" length="14.09" width="3.75" shape="1278.78,873.36 1292.40,869.76"/>
        <lane id=":J13_2_2" index="2" speed="16.67" length="14.09" width="3.75" shape="1279.72,876.99 1293.37,873.38"/>
    </edge>
    <edge id=":J130_0" function="internal">
        <lane id=":J130_0_0" index="0" speed="16.67" length="20.87" width="3.75" shape="-426.10,322.40 -432.79,302.77"/>
        <lane id=":J130_0_1" index="1" speed="16.67" length="20.87" width="3.75" shape="-422.56,321.16 -429.25,301.52"/>
        <lane id=":J130_0_2" index="2" speed="16.67" length="20.87" width="3.75" shape="-419.02,319.92 -425.71,300.28"/>
        <lane id=":J130_0_3" index="3" speed="16.67" length="20.87" width="3.75" shape="-419.02,319.92 -420.49,313.85 -420.59,309.47 -420.70,305.10 -422.18,299.03"/>
    </edge>
    <edge id=":J131_0" function="internal">
        <lane id=":J131_0_0" index="0" speed="16.67" length="21.20" width="3.75" shape="-465.35,137.64 -457.91,157.43"/>
        <lane id=":J131_0_1" index="1" speed="16.67" length="21.20" width="3.75" shape="-468.87,138.95 -461.43,158.71"/>
        <lane id=":J131_0_2" index="2" speed="16.67" length="21.20" width="3.75" shape="-472.38,140.26 -464.96,159.98"/>
        <lane id=":J131_0_3" index="3" speed="16.67" length="21.20" width="3.75" shape="-472.38,140.26 -470.71,146.35 -470.40,150.74 -470.10,155.15 -468.49,161.26"/>
    </edge>
    <edge id=":J132_0" function="internal">
        <lane id=":J132_0_0" index="0" speed="16.67" length="22.40" width="3.75" shape="-600.99,-155.75 -609.01,-176.60"/>
        <lane id=":J132_0_1" index="1" speed="16.67" length="22.40" width="3.75" shape="-597.49,-157.08 -605.49,-177.91"/>
        <lane id=":J132_0_2" index="2" speed="16.67" length="22.40" width="3.75" shape="-593.98,-158.41 -601.98,-179.22"/>
        <lane id=":J132_0_3" index="3" speed="16.67" length="22.40" width="3.75" shape="-593.98,-158.41 -595.82,-164.83 -596.25,-169.46 -596.67,-174.10 -598.46,-180.53"/>
    </edge>
    <edge id=":J133_0" function="internal">
        <lane id=":J133_0_0" index="0" speed="16.67" length="23.55" width="3.75" shape="-643.63,-344.22 -635.61,-322.14"/>
        <lane id=":J133_0_1" index="1" speed="16.67" length="23.55" width="3.75" shape="-647.16,-342.94 -639.14,-320.89"/>
        <lane id=":J133_0_2" index="2" speed="16.67" length="23.55" width="3.75" shape="-650.69,-341.67 -642.68,-319.63"/>
        <lane id=":J133_0_3" index="3" speed="16.67" length="23.55" width="3.75" shape="-650.69,-341.67 -648.84,-334.89 -648.43,-330.03 -648.02,-325.16 -646.21,-318.37"/>
    </edge>
    <edge id=":J134_0" function="internal">
        <lane id=":J134_0_0" index="0" speed="15.28" length="34.12" width="3.75" shape="-952.80,-1210.05 -948.30,-1199.07 -944.63,-1189.93 -941.46,-1183.14 -938.49,-1179.24"/>
    </edge>
    <edge id=":J134_1" function="internal">
        <lane id=":J134_1_0" index="0" speed="16.67" length="36.63" width="3.75" shape="-956.25,-1208.57 -942.53,-1174.41"/>