<?xml version="1.0" encoding="UTF-8"?>

<!-- generated on 2023-11-13 17:43:09 by Eclipse SUMO netedit Version 1.19.0
-->

<routes xmlns:xsi="http://www.w3.org/2001/XMLSchema-instance" xsi:noNamespaceSchemaLocation="http://sumo.dlr.de/xsd/routes_file.xsd">
    <!-- Vehicles, persons and containers (sorted by depart) -->
    <trip id="t_0" depart="0.00" from="-E27" to="E8.673.256"/>
    <trip id="t_1" depart="0.00" from="-E84" to="E75"/>
    <trip id="t_2" depart="0.00" from="-E84" to="E32.1849.441"/>
    <trip id="t_3" depart="0.00" from="-E84.881" to="E63" via="E32.1849.441 E84.443 -E32.469 -E32.617"/>
</routes>
