<?xml version="1.0" encoding="UTF-8"?>

<!-- generated on 2023-11-14 21:55:57 by Eclipse SUMO netedit Version 1.19.0
<configuration xmlns:xsi="http://www.w3.org/2001/XMLSchema-instance" xsi:noNamespaceSchemaLocation="http://sumo.dlr.de/xsd/neteditConfiguration.xsd">

    <input>
        <additional-files value="taz.add.xml"/>
        <sumo-net-file value="D:\YandexDisk\lvl80\UlyDala\Sumo\UlyDala\basic.net.xml"/>
    </input>

    <output>
        <output-file value="D:\YandexDisk\lvl80\UlyDala\Sumo\UlyDala\basic.net.xml"/>
    </output>

    <processing>
        <geometry.min-radius.fix.railways value="false"/>
        <geometry.max-grade.fix value="false"/>
        <offset.disable-normalization value="true"/>
        <lefthand value="0"/>
    </processing>

    <junctions>
        <no-turnarounds value="true"/>
        <junctions.corner-detail value="5"/>
        <junctions.limit-turn-speed value="5.50"/>
        <rectangular-lane-cut value="0"/>
    </junctions>

    <pedestrian>
        <walkingareas value="0"/>
    </pedestrian>

    <visualisation>
        <gui-settings-file value="background/background_config.xml"/>
    </visualisation>

</configuration>
-->

<net version="1.16" junctionCornerDetail="5" limitTurnSpeed="5.50" xmlns:xsi="http://www.w3.org/2001/XMLSchema-instance" xsi:noNamespaceSchemaLocation="http://sumo.dlr.de/xsd/net_file.xsd">

    <location netOffset="0.00,0.00" convBoundary="-1387.22,-1511.96,1618.93,1632.95" origBoundary="-10000000000.00,-10000000000.00,10000000000.00,10000000000.00" projParameter="!"/>

    <edge id=":J0_0" function="internal">
        <lane id=":J0_0_0" index="0" speed="6.49" length="9.03" shape="315.45,838.36 314.57,836.04 313.16,834.57 311.22,833.93 308.75,834.14"/>
    </edge>
    <edge id=":J0_1" function="internal">
        <lane id=":J0_1_0" index="0" speed="11.11" length="14.42" shape="315.45,838.36 312.23,824.30"/>
    </edge>
    <edge id=":J0_2" function="internal">
        <lane id=":J0_2_0" index="0" speed="8.02" length="14.21" shape="315.45,838.36 315.14,834.47 316.14,831.41 318.45,829.19 322.08,827.79"/>
    </edge>
    <edge id=":J0_3" function="internal">
        <lane id=":J0_3_0" index="0" speed="6.53" length="9.07" shape="322.79,830.91 320.48,831.80 319.01,833.22 318.37,835.17 318.57,837.66"/>
    </edge>
    <edge id=":J0_4" function="internal">
        <lane id=":J0_4_0" index="0" speed="11.11" length="14.41" shape="322.79,830.91 308.75,834.14"/>
    </edge>
    <edge id=":J0_5" function="internal">
        <lane id=":J0_5_0" index="0" speed="8.01" length="4.06" shape="322.79,830.91 318.92,831.23 318.76,831.18"/>
    </edge>
    <edge id=":J0_12" function="internal">
        <lane id=":J0_12_0" index="0" speed="8.01" length="10.14" shape="318.76,831.18 315.87,830.24 313.64,827.93 312.23,824.30"/>
    </edge>
    <edge id=":J0_6" function="internal">
        <lane id=":J0_6_0" index="0" speed="6.52" length="9.05" shape="315.34,823.57 316.24,825.89 317.67,827.36 319.61,828.00 322.08,827.79"/>
    </edge>
    <edge id=":J0_7" function="internal">
        <lane id=":J0_7_0" index="0" speed="11.11" length="14.45" shape="315.34,823.57 318.57,837.66"/>
    </edge>
    <edge id=":J0_8" function="internal">
        <lane id=":J0_8_0" index="0" speed="8.00" length="14.21" shape="315.34,823.57 315.69,827.45 314.70,830.51 312.39,832.74 308.75,834.14"/>
    </edge>
    <edge id=":J0_9" function="internal">
        <lane id=":J0_9_0" index="0" speed="6.50" length="9.04" shape="308.03,831.03 310.35,830.13 311.82,828.71 312.44,826.77 312.23,824.30"/>
    </edge>
    <edge id=":J0_10" function="internal">
        <lane id=":J0_10_0" index="0" speed="11.11" length="14.41" shape="308.03,831.03 322.08,827.79"/>
    </edge>
    <edge id=":J0_11" function="internal">
        <lane id=":J0_11_0" index="0" speed="7.99" length="4.07" shape="308.03,831.03 311.92,830.70 312.08,830.75"/>
    </edge>
    <edge id=":J0_13" function="internal">
        <lane id=":J0_13_0" index="0" speed="7.99" length="10.14" shape="312.08,830.75 314.97,831.69 317.19,834.01 318.57,837.66"/>
    </edge>
    <edge id=":J1_0" function="internal">
        <lane id=":J1_0_0" index="0" speed="6.48" length="9.03" shape="752.17,733.98 751.27,731.67 749.84,730.21 747.90,729.61 745.43,729.87"/>
    </edge>
    <edge id=":J1_1" function="internal">
        <lane id=":J1_1_0" index="0" speed="8.02" length="14.22" shape="752.17,733.98 751.82,730.09 752.79,727.02 755.08,724.76 758.69,723.33"/>
    </edge>
    <edge id=":J1_2" function="internal">
        <lane id=":J1_2_0" index="0" speed="6.53" length="9.08" shape="759.43,726.44 757.13,727.36 755.68,728.80 755.06,730.76 755.29,733.25"/>
    </edge>
    <edge id=":J1_3" function="internal">
        <lane id=":J1_3_0" index="0" speed="11.11" length="14.42" shape="759.43,726.44 745.43,729.87"/>
    </edge>
    <edge id=":J1_4" function="internal">
        <lane id=":J1_4_0" index="0" speed="11.11" length="14.45" shape="744.65,726.76 758.69,723.33"/>
    </edge>
    <edge id=":J1_5" function="internal">
        <lane id=":J1_5_0" index="0" speed="7.98" length="4.12" shape="744.65,726.76 748.54,726.36 748.74,726.42"/>
    </edge>
    <edge id=":J1_6" function="internal">
        <lane id=":J1_6_0" index="0" speed="7.98" length="10.13" shape="748.74,726.42 751.61,727.31 753.86,729.60 755.29,733.25"/>
    </edge>
    <edge id=":J102_0" function="internal">
        <lane id=":J102_0_0" index="0" speed="13.89" length="28.70" width="3.75" shape="-686.19,-999.28 -695.97,-999.42 -703.95,-998.69 -710.17,-997.68 -714.72,-996.97"/>
    </edge>
    <edge id=":J102_1" function="internal">
        <lane id=":J102_1_0" index="0" speed="11.11" length="28.69" width="3.75" shape="-686.19,-999.28 -714.81,-1001.38"/>
        <lane id=":J102_1_1" index="1" speed="11.11" length="28.69" width="3.75" shape="-685.93,-1003.02 -714.54,-1005.12"/>
        <lane id=":J102_1_2" index="2" speed="11.11" length="28.69" width="3.75" shape="-685.66,-1006.76 -714.26,-1008.86"/>
    </edge>
    <edge id=":J103_0" function="internal">
        <lane id=":J103_0_0" index="0" speed="16.67" length="19.39" width="3.75" shape="-816.36,-848.38 -816.58,-844.55 -816.85,-840.32 -816.54,-835.33 -815.02,-829.20"/>
    </edge>
    <edge id=":J103_1" function="internal">
        <lane id=":J103_1_0" index="0" speed="16.67" length="19.42" width="3.75" shape="-821.29,-847.57 -815.02,-829.20"/>
        <lane id=":J103_1_1" index="1" speed="16.67" length="19.42" width="3.75" shape="-824.83,-846.36 -818.56,-827.98"/>
        <lane id=":J103_1_2" index="2" speed="16.67" length="19.42" width="3.75" shape="-828.38,-845.15 -822.11,-826.76"/>
    </edge>
    <edge id=":J104_0" function="internal">
        <lane id=":J104_0_0" index="0" speed="13.89" length="15.76" width="3.75" shape="-934.28,-1017.23 -939.22,-1017.10 -942.91,-1016.09 -945.98,-1014.56 -949.08,-1012.82"/>
    </edge>
    <edge id=":J104_1" function="internal">
        <lane id=":J104_1_0" index="0" speed="11.11" length="15.84" width="3.75" shape="-934.28,-1017.23 -950.09,-1018.48"/>
        <lane id=":J104_1_1" index="1" speed="11.11" length="15.84" width="3.75" shape="-934.02,-1020.97 -949.80,-1022.22"/>
        <lane id=":J104_1_2" index="2" speed="11.11" length="15.84" width="3.75" shape="-933.75,-1024.72 -949.52,-1025.96"/>
    </edge>
    <edge id=":J105_0" function="internal">
        <lane id=":J105_0_0" index="0" speed="16.67" length="15.75" width="3.75" shape="-875.02,-942.92 -880.10,-957.81"/>
        <lane id=":J105_0_1" index="1" speed="16.67" length="15.75" width="3.75" shape="-871.48,-944.13 -876.55,-959.04"/>
        <lane id=":J105_0_2" index="2" speed="16.67" length="15.75" width="3.75" shape="-867.93,-945.35 -873.01,-960.27"/>
    </edge>
    <edge id=":J105_3" function="internal">
        <lane id=":J105_3_0" index="0" speed="16.67" length="15.62" width="3.75" shape="-880.78,-942.52 -879.87,-945.96 -879.10,-949.29 -878.99,-953.06 -880.10,-957.81"/>
    </edge>
    <edge id=":J106_0" function="internal">
        <lane id=":J106_0_0" index="0" speed="16.67" length="16.11" width="3.75" shape="-851.53,-936.19 -849.40,-931.59 -846.96,-928.51 -844.28,-926.22 -841.44,-924.03"/>
    </edge>
    <edge id=":J106_1" function="internal">
        <lane id=":J106_1_0" index="0" speed="16.67" length="16.16" width="3.75" shape="-851.53,-936.19 -846.36,-920.86"/>
        <lane id=":J106_1_1" index="1" speed="16.67" length="16.16" width="3.75" shape="-855.07,-934.96 -849.91,-919.65"/>
        <lane id=":J106_1_2" index="2" speed="16.67" length="16.16" width="3.75" shape="-858.61,-933.72 -853.46,-918.43"/>
    </edge>
    <edge id=":J107_0" function="internal">
        <lane id=":J107_0_0" index="0" speed="13.89" length="17.08" width="3.75" shape="-827.80,-1004.34 -830.92,-1006.23 -834.12,-1008.13 -838.07,-1009.72 -843.44,-1010.64"/>
    </edge>
    <edge id=":J107_1" function="internal">
        <lane id=":J107_1_0" index="0" speed="11.11" length="17.14" width="3.75" shape="-826.33,-1009.45 -843.44,-1010.64"/>
        <lane id=":J107_1_1" index="1" speed="11.11" length="17.14" width="3.75" shape="-826.06,-1013.19 -843.15,-1014.38"/>
        <lane id=":J107_1_2" index="2" speed="11.11" length="17.14" width="3.75" shape="-825.79,-1016.93 -842.87,-1018.12"/>
    </edge>
    <edge id=":J108_0" function="internal">
        <lane id=":J108_0_0" index="0" speed="13.89" length="17.15" width="3.75" shape="-855.11,-1031.64 -849.64,-1031.77 -845.48,-1032.79 -842.04,-1034.27 -838.72,-1035.81"/>
    </edge>
    <edge id=":J108_1" function="internal">
        <lane id=":J108_1_0" index="0" speed="11.11" length="17.27" width="3.75" shape="-855.11,-1031.64 -837.88,-1030.40"/>
        <lane id=":J108_1_1" index="1" speed="11.11" length="17.27" width="3.75" shape="-855.37,-1027.90 -838.15,-1026.66"/>
        <lane id=":J108_1_2" index="2" speed="11.11" length="17.27" width="3.75" shape="-855.63,-1024.16 -838.41,-1022.92"/>
    </edge>
    <edge id=":J109_0" function="internal">
        <lane id=":J109_0_0" index="0" speed="16.67" length="17.97" width="3.75" shape="-906.96,-1103.73 -907.60,-1100.06 -907.87,-1096.17 -907.39,-1091.64 -905.74,-1086.09"/>
    </edge>
    <edge id=":J109_1" function="internal">
        <lane id=":J109_1_0" index="0" speed="16.67" length="17.95" width="3.75" shape="-912.41,-1102.79 -905.74,-1086.09"/>
        <lane id=":J109_1_1" index="1" speed="16.67" length="17.95" width="3.75" shape="-915.90,-1101.42 -909.24,-1084.76"/>
        <lane id=":J109_1_2" index="2" speed="16.67" length="17.95" width="3.75" shape="-919.39,-1100.06 -912.75,-1083.43"/>
    </edge>
    <edge id=":J11_0" function="internal">
        <lane id=":J11_0_0" index="0" speed="6.60" length="9.24" width="3.75" shape="899.42,997.23 898.50,994.80 897.07,993.24 895.12,992.54 892.67,992.72"/>
    </edge>
    <edge id=":J11_1" function="internal">
        <lane id=":J11_1_0" index="0" speed="6.64" length="9.19" shape="906.60,989.51 904.33,990.44 902.89,991.92 902.30,993.93 902.54,996.50"/>
    </edge>
    <edge id=":J11_2" function="internal">
        <lane id=":J11_2_0" index="0" speed="16.67" length="14.22" width="3.75" shape="906.60,989.51 892.67,992.72"/>
        <lane id=":J11_2_1" index="1" speed="16.67" length="14.22" width="3.75" shape="905.71,985.87 891.86,989.06"/>
        <lane id=":J11_2_2" index="2" speed="16.67" length="14.22" width="3.75" shape="904.82,982.23 891.04,985.40"/>
    </edge>
    <edge id=":J110_0" function="internal">
        <lane id=":J110_0_0" index="0" speed="16.67" length="19.94" width="3.75" shape="-950.62,-1197.04 -947.58,-1191.24 -944.55,-1187.03 -941.61,-1183.84 -938.86,-1181.12"/>
    </edge>
    <edge id=":J110_1" function="internal">
        <lane id=":J110_1_0" index="0" speed="16.67" length="19.92" width="3.75" shape="-950.62,-1197.04 -943.17,-1178.50"/>
        <lane id=":J110_1_1" index="1" speed="16.67" length="19.92" width="3.75" shape="-954.05,-1195.52 -946.63,-1177.04"/>
        <lane id=":J110_1_2" index="2" speed="16.67" length="19.92" width="3.75" shape="-957.48,-1194.01 -950.08,-1175.57"/>
    </edge>
    <edge id=":J111_0" function="internal">
        <lane id=":J111_0_0" index="0" speed="16.67" length="19.14" width="3.75" shape="-967.51,-1171.16 -967.12,-1174.98 -966.94,-1179.17 -967.56,-1184.04 -969.53,-1189.92"/>
    </edge>
    <edge id=":J111_1" function="internal">
        <lane id=":J111_1_0" index="0" speed="16.67" length="19.14" width="3.75" shape="-962.27,-1172.26 -969.53,-1189.92"/>
        <lane id=":J111_1_1" index="1" speed="16.67" length="19.14" width="3.75" shape="-958.82,-1173.73 -966.10,-1191.43"/>
        <lane id=":J111_1_2" index="2" speed="16.67" length="19.14" width="3.75" shape="-955.37,-1175.19 -962.67,-1192.94"/>
    </edge>
    <edge id=":J112_0" function="internal">
        <lane id=":J112_0_0" index="0" speed="16.41" length="17.98" width="3.75" shape="-932.43,-1099.30 -934.99,-1104.45 -937.86,-1107.97 -940.92,-1110.46 -944.07,-1112.49"/>
    </edge>
    <edge id=":J112_1" function="internal">
        <lane id=":J112_1_0" index="0" speed="16.67" length="17.91" width="3.75" shape="-932.43,-1099.30 -939.01,-1115.95"/>
        <lane id=":J112_1_1" index="1" speed="16.67" length="17.91" width="3.75" shape="-928.93,-1100.66 -935.52,-1117.32"/>
        <lane id=":J112_1_2" index="2" speed="16.67" length="17.91" width="3.75" shape="-925.43,-1102.02 -932.02,-1118.69"/>
    </edge>
    <edge id=":J113_0" function="internal">
        <lane id=":J113_0_0" index="0" speed="13.89" length="22.07" width="3.75" shape="-968.50,-1045.22 -964.99,-1043.14 -960.64,-1041.01 -955.06,-1039.21 -947.84,-1038.14"/>
    </edge>
    <edge id=":J113_1" function="internal">
        <lane id=":J113_1_0" index="0" speed="11.11" length="22.06" width="3.75" shape="-969.81,-1039.94 -947.84,-1038.14"/>
        <lane id=":J113_1_1" index="1" speed="11.11" length="22.06" width="3.75" shape="-970.10,-1036.21 -948.11,-1034.40"/>
        <lane id=":J113_1_2" index="2" speed="11.11" length="22.06" width="3.75" shape="-970.38,-1032.47 -948.37,-1030.66"/>
    </edge>
    <edge id=":J114_0" function="internal">
        <lane id=":J114_0_0" index="0" speed="13.89" length="24.24" width="3.75" shape="-726.07,-1027.14 -722.15,-1025.54 -717.19,-1023.62 -710.86,-1021.87 -702.82,-1020.75"/>
    </edge>
    <edge id=":J114_1" function="internal">
        <lane id=":J114_1_0" index="0" speed="11.11" length="24.34" width="3.75" shape="-727.09,-1022.48 -702.82,-1020.75"/>
        <lane id=":J114_1_1" index="1" speed="11.11" length="24.34" width="3.75" shape="-727.36,-1018.74 -703.08,-1017.01"/>
        <lane id=":J114_1_2" index="2" speed="11.11" length="24.34" width="3.75" shape="-727.63,-1015.00 -703.35,-1013.27"/>
    </edge>
    <edge id=":J115_0" function="internal">
        <lane id=":J115_0_0" index="0" speed="13.89" length="23.53" width="3.75" shape="-1063.21,-1047.03 -1055.38,-1046.91 -1049.06,-1047.74 -1044.14,-1049.27 -1040.48,-1051.26"/>
    </edge>
    <edge id=":J115_1" function="internal">
        <lane id=":J115_1_0" index="0" speed="11.11" length="23.62" width="3.75" shape="-1063.21,-1047.03 -1039.67,-1045.28"/>
        <lane id=":J115_1_1" index="1" speed="11.11" length="23.62" width="3.75" shape="-1063.51,-1043.29 -1039.96,-1041.54"/>
        <lane id=":J115_1_2" index="2" speed="11.11" length="23.62" width="3.75" shape="-1063.80,-1039.56 -1040.24,-1037.80"/>
    </edge>
    <edge id=":J116_0" function="internal">
        <lane id=":J116_0_0" index="0" speed="16.67" length="21.57" width="3.75" shape="-838.64,-836.82 -841.46,-843.38 -844.48,-848.22 -847.38,-851.94 -849.84,-855.11"/>
    </edge>
    <edge id=":J116_1" function="internal">
        <lane id=":J116_1_0" index="0" speed="16.67" length="21.65" width="3.75" shape="-838.64,-836.82 -845.66,-857.30"/>
        <lane id=":J116_1_1" index="1" speed="16.67" length="21.65" width="3.75" shape="-835.09,-838.03 -842.12,-858.52"/>
        <lane id=":J116_1_2" index="2" speed="16.67" length="21.65" width="3.75" shape="-831.55,-839.25 -838.57,-859.73"/>
    </edge>
    <edge id=":J117_0" function="internal">
        <lane id=":J117_0_0" index="0" speed="13.89" length="24.86" width="3.75" shape="-1014.46,-1018.38 -1018.37,-1020.16 -1023.44,-1022.18 -1029.95,-1024.01 -1038.21,-1025.19"/>
    </edge>
    <edge id=":J117_1" function="internal">
        <lane id=":J117_1_0" index="0" speed="11.11" length="24.83" width="3.75" shape="-1013.45,-1023.30 -1038.21,-1025.19"/>
        <lane id=":J117_1_1" index="1" speed="11.11" length="24.83" width="3.75" shape="-1013.17,-1027.04 -1037.93,-1028.93"/>
        <lane id=":J117_1_2" index="2" speed="11.11" length="24.83" width="3.75" shape="-1012.88,-1030.78 -1037.65,-1032.66"/>
    </edge>
    <edge id=":J118_0" function="internal">
        <lane id=":J118_0_0" index="0" speed="6.32" length="9.04" shape="24.08,80.18 23.11,77.87 21.65,76.49 19.68,76.05 17.23,76.55"/>
    </edge>
    <edge id=":J118_1" function="internal">
        <lane id=":J118_1_0" index="0" speed="8.34" length="14.33" shape="24.08,80.18 23.59,76.21 24.36,72.96 26.38,70.44 29.67,68.64"/>
    </edge>
    <edge id=":J118_2" function="internal">
        <lane id=":J118_2_0" index="0" speed="6.91" length="9.53" shape="30.78,71.64 28.63,72.83 27.32,74.52 26.84,76.70 27.18,79.38"/>
    </edge>
    <edge id=":J118_3" function="internal">
        <lane id=":J118_3_0" index="0" speed="11.11" length="14.41" shape="30.78,71.64 17.23,76.55"/>
    </edge>
    <edge id=":J118_4" function="internal">
        <lane id=":J118_4_0" index="0" speed="11.11" length="14.39" shape="16.15,73.54 29.67,68.64"/>
    </edge>
    <edge id=":J118_5" function="internal">
        <lane id=":J118_5_0" index="0" speed="7.85" length="4.04" shape="16.15,73.54 20.10,72.74"/>
    </edge>
    <edge id=":J118_6" function="internal">
        <lane id=":J118_6_0" index="0" speed="7.85" length="10.51" shape="20.10,72.74 23.26,73.44 25.62,75.66 27.18,79.38"/>
    </edge>
    <edge id=":J122_0" function="internal">
        <lane id=":J122_0_0" index="0" speed="6.51" length="9.03" shape="-567.70,-904.27 -568.05,-906.72 -569.10,-908.47 -570.85,-909.52 -573.30,-909.87"/>
    </edge>
    <edge id=":J122_1" function="internal">
        <lane id=":J122_1_0" index="0" speed="11.11" length="14.40" shape="-567.70,-904.27 -567.70,-918.67"/>
    </edge>
    <edge id=":J122_2" function="internal">
        <lane id=":J122_2_0" index="0" speed="11.11" length="14.40" shape="-564.50,-918.67 -564.50,-904.27"/>
    </edge>
    <edge id=":J122_3" function="internal">
        <lane id=":J122_3_0" index="0" speed="8.00" length="4.06" shape="-564.50,-918.67 -565.05,-914.82 -565.14,-914.67"/>
    </edge>
    <edge id=":J122_6" function="internal">
        <lane id=":J122_6_0" index="0" speed="8.00" length="10.13" shape="-565.14,-914.67 -566.70,-912.07 -569.45,-910.42 -573.30,-909.87"/>
    </edge>
    <edge id=":J122_4" function="internal">
        <lane id=":J122_4_0" index="0" speed="6.51" length="9.03" shape="-573.30,-913.07 -570.85,-913.42 -569.10,-914.47 -568.05,-916.22 -567.70,-918.67"/>
    </edge>
    <edge id=":J122_5" function="internal">
        <lane id=":J122_5_0" index="0" speed="8.00" length="14.19" shape="-573.30,-913.07 -569.45,-912.52 -566.70,-910.87 -565.05,-908.12 -564.50,-904.27"/>
    </edge>
    <edge id=":J124_0" function="internal">
        <lane id=":J124_0_0" index="0" speed="16.67" length="8.28" width="3.75" shape="442.73,1099.36 434.90,1101.07"/>
        <lane id=":J124_0_1" index="1" speed="16.67" length="8.28" width="3.75" shape="441.88,1095.71 434.06,1097.41"/>
        <lane id=":J124_0_2" index="2" speed="16.67" length="8.28" width="3.75" shape="441.03,1092.06 433.22,1093.76"/>
        <lane id=":J124_0_3" index="3" speed="16.67" length="8.28" width="3.75" shape="441.03,1092.06 438.47,1092.03 436.71,1091.08 434.95,1090.13 432.38,1090.11"/>
    </edge>
    <edge id=":J126_0" function="internal">
        <lane id=":J126_0_0" index="0" speed="16.67" length="8.29" width="3.75" shape="882.73,994.94 874.96,996.60"/>
        <lane id=":J126_0_1" index="1" speed="16.67" length="8.29" width="3.75" shape="881.91,991.28 874.10,992.95"/>
        <lane id=":J126_0_2" index="2" speed="16.67" length="8.29" width="3.75" shape="881.09,987.62 873.25,989.30"/>
        <lane id=":J126_0_3" index="3" speed="16.67" length="8.29" width="3.75" shape="881.09,987.62 878.51,987.58 876.74,986.62 874.97,985.67 872.39,985.65"/>
    </edge>
    <edge id=":J13_0" function="internal">
        <lane id=":J13_0_0" index="0" speed="6.34" length="9.29" width="3.75" shape="1285.13,861.57 1285.86,864.11 1287.18,865.71 1289.10,866.37 1291.62,866.08"/>
    </edge>
    <edge id=":J13_1" function="internal">
        <lane id=":J13_1_0" index="0" speed="7.11" length="9.87" shape="1277.65,869.78 1279.87,868.79 1281.34,867.16 1282.03,864.91 1281.96,862.02"/>
    </edge>
    <edge id=":J13_2" function="internal">
        <lane id=":J13_2_0" index="0" speed="16.67" length="14.49" width="3.75" shape="1277.65,869.78 1291.62,866.08"/>
        <lane id=":J13_2_1" index="1" speed="16.67" length="14.49" width="3.75" shape="1278.59,873.41 1292.59,869.71"/>
        <lane id=":J13_2_2" index="2" speed="16.67" length="14.49" width="3.75" shape="1279.53,877.04 1293.57,873.33"/>
    </edge>
    <edge id=":J15_0" function="internal">
        <lane id=":J15_0_0" index="0" speed="16.67" length="14.32" width="3.75" shape="825.67,1008.17 811.74,1011.33"/>
        <lane id=":J15_0_1" index="1" speed="16.67" length="14.32" width="3.75" shape="824.81,1004.52 810.85,1007.69"/>
        <lane id=":J15_0_2" index="2" speed="16.67" length="14.32" width="3.75" shape="823.95,1000.87 809.96,1004.04"/>
    </edge>
    <edge id=":J15_3" function="internal">
        <lane id=":J15_3_0" index="0" speed="10.05" length="22.81" shape="823.10,997.22 819.08,996.95 815.60,994.15 812.65,988.82 810.24,980.95"/>
    </edge>
    <edge id=":J15_4" function="internal">
        <lane id=":J15_4_0" index="0" speed="4.48" length="7.83" width="3.75" shape="823.10,997.22 820.83,996.37 819.88,995.22 820.22,993.76 821.87,992.00"/>
    </edge>
    <edge id=":J15_5" function="internal">
        <lane id=":J15_5_0" index="0" speed="6.59" length="9.28" width="3.75" shape="813.35,980.22 814.29,982.66 815.73,984.22 817.69,984.90 820.16,984.70"/>
    </edge>
    <edge id=":J15_6" function="internal">
        <lane id=":J15_6_0" index="0" speed="10.71" length="26.09" width="3.75" shape="813.35,980.22 815.06,989.87 815.06,997.05 813.36,1001.78 809.96,1004.04"/>
    </edge>
    <edge id=":J15_7" function="internal">
        <lane id=":J15_7_0" index="0" speed="6.67" length="9.33" shape="806.05,988.00 808.39,987.06 809.86,985.57 810.48,983.53 810.24,980.95"/>
    </edge>
    <edge id=":J15_8" function="internal">
        <lane id=":J15_8_0" index="0" speed="16.67" length="14.45" width="3.75" shape="806.05,988.00 820.16,984.70"/>
        <lane id=":J15_8_1" index="1" speed="16.67" length="14.45" width="3.75" shape="806.94,991.64 821.01,988.35"/>
        <lane id=":J15_8_2" index="2" speed="16.67" length="14.45" width="3.75" shape="807.83,995.28 821.87,992.00"/>
    </edge>
    <edge id=":J16_0" function="internal">
        <lane id=":J16_0_0" index="0" speed="6.61" length="9.59" width="3.75" shape="-93.53,1247.52 -94.62,1245.13 -96.23,1243.72 -98.34,1243.29 -100.96,1243.83"/>
    </edge>
    <edge id=":J16_1" function="internal">
        <lane id=":J16_1_0" index="0" speed="16.67" length="31.83" width="3.75" shape="-93.53,1247.52 -104.15,1217.83"/>
        <lane id=":J16_1_1" index="1" speed="16.67" length="31.83" width="3.75" shape="-89.93,1246.46 -100.64,1216.49"/>
        <lane id=":J16_1_2" index="2" speed="16.67" length="31.83" width="3.75" shape="-86.33,1245.40 -97.14,1215.15"/>
    </edge>
    <edge id=":J16_4" function="internal">
        <lane id=":J16_4_0" index="0" speed="11.54" length="30.19" width="3.75" shape="-86.33,1245.40 -87.56,1237.14 -85.91,1230.47 -81.40,1225.38 -74.02,1221.88"/>
    </edge>
    <edge id=":J16_5" function="internal">
        <lane id=":J16_5_0" index="0" speed="6.89" length="9.96" width="3.75" shape="-70.33,1233.89 -72.66,1235.03 -74.07,1236.73 -74.55,1238.99 -74.10,1241.80"/>
    </edge>
    <edge id=":J16_6" function="internal">
        <lane id=":J16_6_0" index="0" speed="16.67" length="32.38" width="3.75" shape="-70.33,1233.89 -100.96,1243.83"/>
        <lane id=":J16_6_1" index="1" speed="16.67" length="32.38" width="3.75" shape="-71.43,1230.31 -102.23,1240.31"/>
        <lane id=":J16_6_2" index="2" speed="16.67" length="32.38" width="3.75" shape="-72.53,1226.72 -103.49,1236.78"/>
    </edge>
    <edge id=":J16_9" function="internal">
        <lane id=":J16_9_0" index="0" speed="11.85" length="10.11" width="3.75" shape="-72.53,1226.72 -80.85,1228.08 -82.49,1227.73"/>
    </edge>
    <edge id=":J16_20" function="internal">
        <lane id=":J16_20_0" index="0" speed="11.85" length="20.46" width="3.75" shape="-82.49,1227.73 -87.72,1226.61 -93.15,1222.30 -97.14,1215.15"/>
    </edge>
    <edge id=":J16_10" function="internal">
        <lane id=":J16_10_0" index="0" speed="7.37" length="11.12" width="3.75" shape="-85.23,1210.61 -83.79,1213.17 -81.81,1214.71 -79.29,1215.22 -76.22,1214.71"/>
    </edge>
    <edge id=":J16_11" function="internal">
        <lane id=":J16_11_0" index="0" speed="16.67" length="32.83" width="3.75" shape="-85.23,1210.61 -74.10,1241.80"/>
        <lane id=":J16_11_1" index="1" speed="16.67" length="32.83" width="3.75" shape="-88.73,1211.95 -77.70,1242.86"/>
        <lane id=":J16_11_2" index="2" speed="16.67" length="32.83" width="3.75" shape="-92.24,1213.28 -81.29,1243.92"/>
    </edge>
    <edge id=":J16_14" function="internal">
        <lane id=":J16_14_0" index="0" speed="11.35" length="29.83" width="3.75" shape="-92.24,1213.28 -90.50,1221.17 -91.80,1227.71 -96.13,1232.91 -103.49,1236.78"/>
    </edge>
    <edge id=":J16_15" function="internal">
        <lane id=":J16_15_0" index="0" speed="6.66" length="9.48" width="3.75" shape="-107.60,1225.34 -105.30,1224.13 -103.96,1222.47 -103.57,1220.37 -104.15,1217.83"/>
    </edge>
    <edge id=":J16_16" function="internal">
        <lane id=":J16_16_0" index="0" speed="16.67" length="32.96" width="3.75" shape="-107.60,1225.34 -76.22,1214.71"/>
        <lane id=":J16_16_1" index="1" speed="16.67" length="32.96" width="3.75" shape="-106.34,1228.87 -75.12,1218.29"/>
        <lane id=":J16_16_2" index="2" speed="16.67" length="32.96" width="3.75" shape="-105.07,1232.40 -74.02,1221.88"/>
    </edge>
    <edge id=":J16_19" function="internal">
        <lane id=":J16_19_0" index="0" speed="11.31" length="10.40" width="3.75" shape="-105.07,1232.40 -96.66,1230.65 -94.89,1231.00"/>
    </edge>
    <edge id=":J16_21" function="internal">
        <lane id=":J16_21_0" index="0" speed="11.31" length="20.13" width="3.75" shape="-94.89,1231.00 -89.90,1231.98 -84.78,1236.40 -81.29,1243.92"/>
    </edge>
    <edge id=":J17_0" function="internal">
        <lane id=":J17_0_0" index="0" speed="6.56" length="9.26" width="3.75" shape="598.87,1032.02 599.79,1034.44 601.23,1035.99 603.19,1036.65 605.66,1036.43"/>
    </edge>
    <edge id=":J17_1" function="internal">
        <lane id=":J17_1_0" index="0" speed="6.64" length="9.27" shape="591.63,1039.75 593.93,1038.84 595.39,1037.37 595.99,1035.33 595.75,1032.74"/>
    </edge>
    <edge id=":J17_2" function="internal">
        <lane id=":J17_2_0" index="0" speed="16.67" length="14.46" width="3.75" shape="591.63,1039.75 605.66,1036.43"/>
        <lane id=":J17_2_1" index="1" speed="16.67" length="14.46" width="3.75" shape="592.47,1043.40 606.54,1040.08"/>
        <lane id=":J17_2_2" index="2" speed="16.67" length="14.46" width="3.75" shape="593.31,1047.05 607.42,1043.72"/>
    </edge>
    <edge id=":J18_0" function="internal">
        <lane id=":J18_0_0" index="0" speed="6.54" length="9.26" width="3.75" shape="1037.24,925.99 1038.19,928.42 1039.64,929.94 1041.61,930.58 1044.08,930.32"/>
    </edge>
    <edge id=":J18_1" function="internal">
        <lane id=":J18_1_0" index="0" speed="6.67" length="9.31" shape="1030.10,933.85 1032.38,932.91 1033.82,931.41 1034.40,929.35 1034.13,926.74"/>
    </edge>
    <edge id=":J18_2" function="internal">
        <lane id=":J18_2_0" index="0" speed="16.67" length="14.47" width="3.75" shape="1030.10,933.85 1044.08,930.32"/>
        <lane id=":J18_2_1" index="1" speed="16.67" length="14.47" width="3.75" shape="1030.99,937.50 1045.02,933.95"/>
        <lane id=":J18_2_2" index="2" speed="16.67" length="14.47" width="3.75" shape="1031.89,941.14 1045.96,937.58"/>
    </edge>
    <edge id=":J19_0" function="internal">
        <lane id=":J19_0_0" index="0" speed="3.90" length="2.76" shape="1246.20,610.93 1245.99,610.19 1245.59,609.73 1245.01,609.53 1244.24,609.60"/>
    </edge>
    <edge id=":J19_1" function="internal">
        <lane id=":J19_1_0" index="0" speed="6.07" length="8.29" shape="1243.49,606.49 1245.79,606.27 1247.53,606.87 1248.72,608.27 1249.37,610.48"/>
    </edge>
    <edge id=":J2_0" function="internal">
        <lane id=":J2_0_0" index="0" speed="6.50" length="9.03" shape="974.77,680.05 973.86,677.75 972.43,676.29 970.48,675.69 968.01,675.93"/>
    </edge>
    <edge id=":J2_1" function="internal">
        <lane id=":J2_1_0" index="0" speed="8.00" length="14.21" shape="974.77,680.05 974.41,676.17 975.37,673.11 977.66,670.86 981.27,669.43"/>
    </edge>
    <edge id=":J2_2" function="internal">
        <lane id=":J2_2_0" index="0" speed="6.51" length="9.04" shape="982.02,672.54 979.72,673.45 978.26,674.88 977.65,676.83 977.88,679.30"/>
    </edge>
    <edge id=":J2_3" function="internal">
        <lane id=":J2_3_0" index="0" speed="11.11" length="14.41" shape="982.02,672.54 968.01,675.93"/>
    </edge>
    <edge id=":J2_4" function="internal">
        <lane id=":J2_4_0" index="0" speed="11.11" length="14.43" shape="967.25,672.83 981.27,669.43"/>
    </edge>