<?xml version="1.0" encoding="UTF-8"?>

<!-- generated on 2023-11-12 13:24:03 by Eclipse SUMO netedit Version 1.19.0
-->

<routes xmlns:xsi="http://www.w3.org/2001/XMLSchema-instance" xsi:noNamespaceSchemaLocation="http://sumo.dlr.de/xsd/routes_file.xsd">
    <!-- Vehicles, persons and containers (sorted by depart) -->
    <trip id="t_0" depart="0.00" personNumber="10" from="-E27" to="E8.673.256"/>
</routes>
