<?xml version="1.0" encoding="UTF-8"?>

<!-- generated on 2023-12-07 14:06:10 by Eclipse SUMO netedit Version 1.19.0
<configuration xmlns:xsi="http://www.w3.org/2001/XMLSchema-instance" xsi:noNamespaceSchemaLocation="http://sumo.dlr.de/xsd/neteditConfiguration.xsd">

    <input>
        <additional-files value="taz.add.xml"/>
        <sumo-net-file value="basic.net.xml"/>
    </input>

    <output>
        <output-file value="basic.net.xml"/>
    </output>

    <processing>
        <geometry.min-radius.fix.railways value="false"/>
        <geometry.max-grade.fix value="false"/>
        <offset.disable-normalization value="true"/>
        <lefthand value="0"/>
    </processing>

    <building_defaults>
        <default.lanewidth value="3"/>
        <default.speed value="11.11"/>
    </building_defaults>

    <tls_building>
        <tls.cycle.time value="60"/>
    </tls_building>

    <junctions>
        <no-turnarounds value="true"/>
        <junctions.corner-detail value="20"/>
        <junctions.internal-link-detail value="30"/>
        <junctions.limit-turn-speed value="5.50"/>
        <rectangular-lane-cut value="0"/>
    </junctions>

    <pedestrian>
        <walkingareas value="0"/>
    </pedestrian>

    <visualisation>
        <gui-settings-file value="background/background_config.xml"/>
    </visualisation>

</configuration>
-->

<net version="1.16" junctionCornerDetail="20" junctionLinkDetail="30" limitTurnSpeed="5.50" xmlns:xsi="http://www.w3.org/2001/XMLSchema-instance" xsi:noNamespaceSchemaLocation="http://sumo.dlr.de/xsd/net_file.xsd">

    <location netOffset="0.00,0.00" convBoundary="-1387.22,-1511.96,1618.93,1632.95" origBoundary="-10000000000.00,-10000000000.00,10000000000.00,10000000000.00" projParameter="!"/>

    <edge id=":J0_0" function="internal">
        <lane id=":J0_0_0" index="0" speed="11.11" length="12.97" width="3.00" shape="-485.44,-302.33 -484.82,-302.55 -484.23,-302.73 -483.66,-302.88 -483.11,-303.01 -482.59,-303.11 -482.08,-303.19 -481.60,-303.25 -481.13,-303.29 -480.68,-303.32 -480.24,-303.33 -479.82,-303.33 -479.40,-303.32 -479.00,-303.31 -478.60,-303.29 -478.21,-303.26 -477.82,-303.24 -477.43,-303.22 -477.05,-303.20 -476.67,-303.18 -476.28,-303.17 -475.89,-303.18 -475.50,-303.19 -475.09,-303.22 -474.68,-303.27 -474.26,-303.33 -473.83,-303.42 -473.38,-303.53 -472.92,-303.66 -472.45,-303.82"/>
        <lane id=":J0_0_1" index="1" speed="11.11" length="12.97" width="3.00" shape="-484.43,-299.51 -472.45,-303.82"/>
    </edge>
    <edge id=":J1_0" function="internal">
        <lane id=":J1_0_0" index="0" speed="6.44" length="8.93" width="3.00" shape="748.96,735.78 748.87,735.41 748.76,735.07 748.65,734.74 748.53,734.42 748.40,734.13 748.26,733.84 748.11,733.58 747.95,733.33 747.77,733.09 747.59,732.87 747.41,732.67 747.21,732.48 747.00,732.31 746.78,732.15 746.55,732.01 746.31,731.89 746.06,731.78 745.81,731.69 745.54,731.61 745.26,731.55 744.98,731.51 744.68,731.48 744.37,731.47 744.06,731.47 743.73,731.49 743.40,731.52 743.05,731.57 742.70,731.64 742.33,731.72"/>
    </edge>
    <edge id=":J1_1" function="internal">
        <lane id=":J1_1_0" index="0" speed="11.11" length="17.35" width="3.00" shape="748.96,735.78 748.77,734.92 748.60,734.10 748.46,733.30 748.34,732.54 748.25,731.80 748.17,731.08 748.12,730.39 748.08,729.72 748.05,729.07 748.04,728.44 748.03,727.83 748.04,727.24 748.05,726.66 748.07,726.10 748.10,725.55 748.12,725.01 748.14,724.49 748.17,723.97 748.19,723.46 748.20,722.96 748.21,722.46 748.20,721.97 748.19,721.48 748.16,721.00 748.12,720.51 748.07,720.02 747.99,719.53 747.90,719.04 747.78,718.54"/>
    </edge>
    <edge id=":J1_2" function="internal">
        <lane id=":J1_2_0" index="0" speed="8.52" length="16.33" width="3.00" shape="751.88,735.08 751.76,734.52 751.67,733.96 751.61,733.42 751.58,732.90 751.59,732.39 751.62,731.89 751.69,731.40 751.79,730.93 751.92,730.47 752.08,730.03 752.28,729.60 752.50,729.18 752.76,728.77 753.04,728.38 753.36,728.01 753.71,727.64 754.09,727.29 754.50,726.95 754.95,726.63 755.42,726.32 755.93,726.02 756.47,725.74 757.03,725.47 757.64,725.22 758.27,724.97 758.93,724.74 759.62,724.53 760.35,724.33 761.11,724.14"/>
    </edge>
    <edge id=":J1_3" function="internal">
        <lane id=":J1_3_0" index="0" speed="6.45" length="8.95" width="3.00" shape="761.79,727.06 761.43,727.15 761.09,727.25 760.76,727.36 760.44,727.48 760.14,727.62 759.86,727.76 759.59,727.91 759.34,728.07 759.11,728.24 758.89,728.42 758.68,728.61 758.50,728.81 758.32,729.02 758.17,729.23 758.03,729.46 757.90,729.70 757.79,729.95 757.70,730.21 757.62,730.48 757.56,730.75 757.51,731.04 757.48,731.34 757.47,731.65 757.47,731.96 757.49,732.29 757.52,732.63 757.57,732.97 757.63,733.33 757.71,733.70"/>
    </edge>
    <edge id=":J1_4" function="internal">
        <lane id=":J1_4_0" index="0" speed="11.11" length="20.01" width="3.00" shape="761.79,727.06 742.33,731.72"/>
    </edge>
    <edge id=":J1_5" function="internal">
        <lane id=":J1_5_0" index="0" speed="9.16" length="4.52" width="3.00" shape="761.79,727.06 761.03,727.22 760.29,727.36 759.57,727.45 758.87,727.52 758.19,727.56 757.53,727.56 757.31,727.55"/>
    </edge>
    <edge id=":J1_14" function="internal">
        <lane id=":J1_14_0" index="0" speed="9.16" length="14.22" width="3.00" shape="757.31,727.55 756.89,727.52 756.26,727.46 755.66,727.36 755.08,727.23 754.52,727.07 753.97,726.88 753.45,726.65 752.95,726.39 752.46,726.09 752.00,725.77 751.56,725.41 751.13,725.01 750.73,724.59 750.35,724.13 749.98,723.64 749.64,723.12 749.31,722.56 749.01,721.97 748.72,721.35 748.46,720.70 748.21,720.01 747.99,719.29 747.78,718.54"/>
    </edge>
    <edge id=":J1_6" function="internal">
        <lane id=":J1_6_0" index="0" speed="7.32" length="11.63" width="3.00" shape="750.70,717.80 750.80,718.16 750.92,718.50 751.06,718.83 751.21,719.14 751.38,719.44 751.56,719.71 751.77,719.97 751.99,720.21 752.22,720.43 752.47,720.64 752.74,720.83 753.03,721.00 753.33,721.15 753.65,721.28 753.98,721.40 754.33,721.50 754.70,721.59 755.09,721.65 755.49,721.70 755.91,721.73 756.34,721.74 756.79,721.74 757.26,721.72 757.75,721.68 758.25,721.62 758.77,721.55 759.30,721.45 759.85,721.34 760.42,721.22"/>
    </edge>
    <edge id=":J1_7" function="internal">
        <lane id=":J1_7_0" index="0" speed="11.11" length="17.27" width="3.00" shape="750.70,717.80 750.84,718.29 750.99,718.77 751.16,719.24 751.34,719.70 751.54,720.14 751.75,720.59 751.97,721.03 752.21,721.46 752.45,721.90 752.70,722.34 752.96,722.78 753.23,723.23 753.50,723.69 753.78,724.16 754.05,724.63 754.34,725.13 754.62,725.64 754.90,726.16 755.18,726.71 755.46,727.27 755.74,727.87 756.01,728.48 756.28,729.13 756.54,729.80 756.79,730.51 757.04,731.25 757.27,732.03 757.50,732.84 757.71,733.70"/>
        <lane id=":J1_7_1" index="1" speed="11.11" length="17.27" width="3.00" shape="750.70,717.80 754.80,734.39"/>
    </edge>
    <edge id=":J1_9" function="internal">
        <lane id=":J1_9_0" index="0" speed="9.06" length="18.68" width="3.00" shape="750.70,717.80 750.88,718.56 751.03,719.30 751.14,720.02 751.22,720.72 751.26,721.40 751.27,722.07 751.25,722.71 751.20,723.33 751.11,723.93 750.99,724.51 750.83,725.07 750.64,725.61 750.42,726.13 750.17,726.63 749.88,727.11 749.56,727.57 749.20,728.01 748.81,728.43 748.39,728.83 747.93,729.21 747.45,729.57 746.92,729.91 746.37,730.23 745.78,730.53 745.16,730.81 744.50,731.07 743.81,731.30 743.09,731.52 742.33,731.72"/>
    </edge>
    <edge id=":J1_10" function="internal">
        <lane id=":J1_10_0" index="0" speed="7.19" length="11.42" width="3.00" shape="740.91,725.89 741.47,725.75 742.00,725.60 742.51,725.44 743.00,725.27 743.46,725.10 743.91,724.92 744.33,724.73 744.72,724.53 745.10,724.32 745.45,724.11 745.78,723.89 746.08,723.66 746.36,723.42 746.62,723.18 746.86,722.92 747.07,722.66 747.27,722.39 747.43,722.11 747.58,721.83 747.70,721.54 747.80,721.23 747.88,720.93 747.93,720.61 747.97,720.28 747.98,719.95 747.96,719.61 747.92,719.26 747.86,718.90 747.78,718.54"/>
    </edge>
    <edge id=":J1_11" function="internal">
        <lane id=":J1_11_0" index="0" speed="11.11" length="20.05" width="3.00" shape="740.91,725.89 760.42,721.22"/>
        <lane id=":J1_11_1" index="1" speed="11.11" length="20.05" width="3.00" shape="741.62,728.81 761.11,724.14"/>
    </edge>
    <edge id=":J1_13" function="internal">
        <lane id=":J1_13_0" index="0" speed="8.51" length="5.31" width="3.00" shape="741.62,728.81 742.38,728.63 743.12,728.48 743.84,728.36 744.54,728.26 745.21,728.19 745.86,728.15 746.49,728.13 746.88,728.14"/>
    </edge>
    <edge id=":J1_15" function="internal">
        <lane id=":J1_15_0" index="0" speed="8.51" length="11.02" width="3.00" shape="746.88,728.14 747.10,728.14 747.68,728.17 748.25,728.24 748.79,728.32 749.31,728.44 749.81,728.58 750.28,728.74 750.74,728.94 751.17,729.15 751.58,729.40 751.97,729.67 752.34,729.97 752.68,730.29 753.00,730.64 753.30,731.02 753.58,731.42 753.84,731.85 754.08,732.31 754.29,732.79 754.48,733.29 754.65,733.83 754.80,734.39"/>
    </edge>
    <edge id=":J104_0" function="internal">
        <lane id=":J104_0_0" index="0" speed="6.47" length="8.96" width="3.00" shape="585.92,990.73 585.83,990.37 585.73,990.02 585.61,989.69 585.49,989.38 585.36,989.08 585.22,988.80 585.07,988.53 584.91,988.27 584.74,988.04 584.56,987.82 584.37,987.61 584.17,987.42 583.96,987.25 583.74,987.09 583.52,986.95 583.28,986.82 583.03,986.71 582.77,986.62 582.50,986.54 582.23,986.47 581.94,986.43 581.64,986.39 581.33,986.38 581.02,986.38 580.69,986.39 580.36,986.42 580.01,986.47 579.65,986.53 579.29,986.61"/>
    </edge>
    <edge id=":J104_1" function="internal">
        <lane id=":J104_1_0" index="0" speed="11.11" length="14.02" width="3.00" shape="585.92,990.73 582.72,977.09"/>
        <lane id=":J104_1_1" index="1" speed="11.11" length="14.02" width="3.00" shape="588.84,990.05 585.64,976.40"/>
    </edge>
    <edge id=":J104_3" function="internal">
        <lane id=":J104_3_0" index="0" speed="7.88" length="9.68" width="3.00" shape="588.84,990.05 588.72,989.48 588.62,988.94 588.55,988.40 588.50,987.89 588.47,987.38 588.47,986.89 588.50,986.42 588.55,985.96 588.62,985.52 588.72,985.09 588.84,984.68 588.98,984.28 589.15,983.90 589.35,983.53 589.56,983.18 589.81,982.84 590.07,982.52 590.36,982.21 590.68,981.92 591.02,981.64 591.38,981.38"/>
    </edge>
    <edge id=":J104_10" function="internal">
        <lane id=":J104_10_0" index="0" speed="7.88" length="4.12" width="3.00" shape="591.38,981.38 591.77,981.13 592.19,980.90 592.62,980.68 593.08,980.48 593.57,980.29 594.08,980.12 594.61,979.96 595.17,979.82"/>
    </edge>
    <edge id=":J104_4" function="internal">
        <lane id=":J104_4_0" index="0" speed="11.11" length="17.02" width="3.00" shape="595.86,982.74 579.29,986.61"/>
    </edge>
    <edge id=":J104_5" function="internal">
        <lane id=":J104_5_0" index="0" speed="7.88" length="13.81" width="3.00" shape="595.86,982.74 595.30,982.86 594.75,982.96 594.22,983.04 593.70,983.09 593.20,983.11 592.71,983.11 592.23,983.09 591.78,983.04 591.33,982.97 590.91,982.87 590.49,982.75 590.09,982.60 589.71,982.43 589.34,982.24 588.99,982.02 588.65,981.78 588.33,981.51 588.02,981.22 587.73,980.90 587.46,980.56 587.19,980.20 586.95,979.81 586.71,979.39 586.50,978.96 586.30,978.49 586.11,978.01 585.94,977.50 585.78,976.96 585.64,976.40"/>
    </edge>
    <edge id=":J104_6" function="internal">
        <lane id=":J104_6_0" index="0" speed="6.45" length="8.94" width="3.00" shape="588.56,975.72 588.65,976.08 588.75,976.43 588.86,976.76 588.98,977.07 589.12,977.37 589.26,977.65 589.41,977.92 589.57,978.17 589.74,978.41 589.91,978.63 590.10,978.84 590.30,979.02 590.51,979.20 590.73,979.35 590.96,979.50 591.20,979.62 591.44,979.73 591.70,979.83 591.97,979.90 592.24,979.97 592.53,980.01 592.83,980.05 593.13,980.06 593.45,980.06 593.77,980.04 594.11,980.01 594.45,979.96 594.81,979.90 595.17,979.82"/>
    </edge>
    <edge id=":J104_7" function="internal">
        <lane id=":J104_7_0" index="0" speed="8.52" length="3.36" width="3.00" shape="588.56,975.72 588.68,976.28 588.77,976.83 588.82,977.37 588.85,977.90 588.84,978.41 588.80,978.91 588.78,979.05"/>
    </edge>
    <edge id=":J104_11" function="internal">
        <lane id=":J104_11_0" index="0" speed="8.52" length="12.95" width="3.00" shape="588.78,979.05 588.73,979.39 588.63,979.86 588.50,980.32 588.34,980.76 588.14,981.19 587.92,981.61 587.66,982.01 587.37,982.40 587.05,982.77 586.70,983.14 586.32,983.48 585.90,983.82 585.46,984.14 584.98,984.45 584.47,984.74 583.94,985.02 583.37,985.29 582.76,985.54 582.13,985.78 581.47,986.01 580.77,986.22 580.05,986.42 579.29,986.61"/>
    </edge>
    <edge id=":J104_8" function="internal">
        <lane id=":J104_8_0" index="0" speed="6.45" length="8.93" width="3.00" shape="578.61,983.69 578.97,983.60 579.32,983.50 579.65,983.39 579.97,983.27 580.26,983.14 580.55,983.00 580.81,982.85 581.07,982.69 581.30,982.52 581.52,982.34 581.73,982.15 581.92,981.95 582.09,981.75 582.25,981.53 582.39,981.30 582.51,981.06 582.62,980.82 582.72,980.56 582.80,980.29 582.86,980.02 582.91,979.73 582.94,979.43 582.95,979.13 582.95,978.81 582.94,978.49 582.91,978.15 582.86,977.81 582.80,977.45 582.72,977.09"/>
    </edge>
    <edge id=":J104_9" function="internal">
        <lane id=":J104_9_0" index="0" speed="11.11" length="17.01" width="3.00" shape="578.61,983.69 595.17,979.82"/>
    </edge>
    <edge id=":J106_0" function="internal">
        <lane id=":J106_0_0" index="0" speed="6.46" length="8.94" width="3.00" shape="135.79,1096.58 135.69,1096.22 135.59,1095.87 135.48,1095.54 135.36,1095.23 135.23,1094.93 135.09,1094.64 134.94,1094.38 134.78,1094.13 134.61,1093.89 134.43,1093.67 134.24,1093.47 134.04,1093.28 133.83,1093.10 133.61,1092.95 133.38,1092.80 133.14,1092.68 132.89,1092.57 132.64,1092.47 132.37,1092.40 132.09,1092.33 131.81,1092.29 131.51,1092.26 131.20,1092.24 130.89,1092.24 130.56,1092.26 130.23,1092.29 129.88,1092.33 129.53,1092.40 129.16,1092.48"/>
    </edge>
    <edge id=":J106_1" function="internal">
        <lane id=":J106_1_0" index="0" speed="11.11" length="14.05" width="3.00" shape="135.79,1096.58 132.59,1082.88"/>
        <lane id=":J106_1_1" index="1" speed="11.11" length="14.05" width="3.00" shape="138.71,1095.89 135.52,1082.21"/>
    </edge>
    <edge id=":J106_3" function="internal">
        <lane id=":J106_3_0" index="0" speed="7.89" length="9.79" width="3.00" shape="138.71,1095.89 138.58,1095.32 138.48,1094.78 138.41,1094.24 138.36,1093.73 138.33,1093.22 138.33,1092.74 138.36,1092.26 138.40,1091.80 138.48,1091.36 138.57,1090.93 138.69,1090.52 138.84,1090.12 139.01,1089.74 139.20,1089.37 139.42,1089.02 139.66,1088.68 139.93,1088.35 140.22,1088.04 140.54,1087.75 140.88,1087.47 141.24,1087.21 141.33,1087.15"/>
    </edge>
    <edge id=":J106_10" function="internal">
        <lane id=":J106_10_0" index="0" speed="7.89" length="4.03" width="3.00" shape="141.33,1087.15 141.63,1086.96 142.04,1086.72 142.48,1086.51 142.94,1086.30 143.43,1086.11 143.94,1085.94 144.48,1085.78 145.04,1085.63"/>
    </edge>
    <edge id=":J106_4" function="internal">
        <lane id=":J106_4_0" index="0" speed="11.11" length="17.03" width="3.00" shape="145.74,1088.55 129.16,1092.48"/>
    </edge>
    <edge id=":J106_5" function="internal">
        <lane id=":J106_5_0" index="0" speed="7.86" length="13.83" width="3.00" shape="145.74,1088.55 145.17,1088.68 144.62,1088.78 144.09,1088.85 143.57,1088.90 143.06,1088.93 142.57,1088.93 142.10,1088.91 141.64,1088.86 141.19,1088.79 140.77,1088.70 140.35,1088.58 139.96,1088.43 139.57,1088.26 139.20,1088.07 138.85,1087.85 138.52,1087.61 138.19,1087.34 137.89,1087.05 137.60,1086.73 137.32,1086.39 137.06,1086.02 136.81,1085.63 136.58,1085.22 136.37,1084.78 136.17,1084.31 135.98,1083.83 135.81,1083.31 135.66,1082.77 135.52,1082.21"/>
    </edge>
    <edge id=":J106_6" function="internal">
        <lane id=":J106_6_0" index="0" speed="6.43" length="8.93" width="3.00" shape="138.44,1081.54 138.53,1081.91 138.63,1082.25 138.74,1082.58 138.86,1082.90 138.99,1083.20 139.13,1083.48 139.28,1083.75 139.44,1084.00 139.60,1084.24 139.78,1084.46 139.97,1084.66 140.17,1084.85 140.38,1085.02 140.59,1085.18 140.82,1085.32 141.06,1085.45 141.31,1085.56 141.56,1085.65 141.83,1085.73 142.11,1085.79 142.39,1085.84 142.69,1085.87 142.99,1085.88 143.31,1085.88 143.64,1085.86 143.97,1085.83 144.32,1085.78 144.67,1085.71 145.04,1085.63"/>
    </edge>
    <edge id=":J106_7" function="internal">
        <lane id=":J106_7_0" index="0" speed="8.55" length="3.34" width="3.00" shape="138.44,1081.54 138.56,1082.11 138.64,1082.66 138.70,1083.20 138.72,1083.73 138.71,1084.24 138.67,1084.74 138.65,1084.86"/>
    </edge>
    <edge id=":J106_11" function="internal">
        <lane id=":J106_11_0" index="0" speed="8.55" length="12.99" width="3.00" shape="138.65,1084.86 138.60,1085.22 138.50,1085.69 138.36,1086.15 138.20,1086.60 138.00,1087.03 137.78,1087.44 137.52,1087.85 137.23,1088.24 136.91,1088.62 136.56,1088.98 136.18,1089.33 135.76,1089.67 135.32,1089.99 134.84,1090.30 134.34,1090.59 133.80,1090.88 133.23,1091.15 132.63,1091.40 132.00,1091.64 131.34,1091.87 130.64,1092.09 129.92,1092.29 129.16,1092.48"/>
    </edge>
    <edge id=":J106_8" function="internal">
        <lane id=":J106_8_0" index="0" speed="6.48" length="8.99" width="3.00" shape="128.48,1089.56 128.84,1089.46 129.19,1089.36 129.52,1089.25 129.83,1089.13 130.13,1089.00 130.41,1088.86 130.68,1088.71 130.93,1088.55 131.17,1088.37 131.39,1088.19 131.59,1088.00 131.78,1087.80 131.95,1087.59 132.11,1087.37 132.25,1087.14 132.38,1086.90 132.49,1086.65 132.59,1086.39 132.67,1086.12 132.73,1085.84 132.78,1085.55 132.81,1085.25 132.82,1084.95 132.83,1084.63 132.81,1084.30 132.78,1083.96 132.73,1083.61 132.67,1083.25 132.59,1082.88"/>
    </edge>
    <edge id=":J106_9" function="internal">
        <lane id=":J106_9_0" index="0" speed="11.11" length="17.02" width="3.00" shape="128.48,1089.56 145.04,1085.63"/>
    </edge>
    <edge id=":J108_0" function="internal">
        <lane id=":J108_0_0" index="0" speed="6.44" length="8.93" width="3.00" shape="203.50,867.19 203.41,866.83 203.31,866.48 203.20,866.15 203.08,865.84 202.94,865.54 202.80,865.26 202.65,864.99 202.50,864.74 202.33,864.50 202.15,864.28 201.96,864.08 201.76,863.89 201.55,863.72 201.33,863.56 201.10,863.42 200.87,863.29 200.62,863.18 200.36,863.09 200.10,863.01 199.82,862.95 199.53,862.90 199.24,862.87 198.93,862.86 198.61,862.86 198.29,862.88 197.95,862.91 197.61,862.96 197.25,863.02 196.89,863.10"/>
    </edge>
    <edge id=":J108_1" function="internal">
        <lane id=":J108_1_0" index="0" speed="11.11" length="23.03" width="3.00" shape="203.50,867.19 198.29,844.75"/>
    </edge>
    <edge id=":J108_2" function="internal">
        <lane id=":J108_2_0" index="0" speed="8.54" length="16.35" width="3.00" shape="203.50,867.19 203.33,866.43 203.19,865.69 203.07,864.97 202.98,864.27 202.92,863.60 202.88,862.95 202.87,862.32 202.89,861.71 202.93,861.12 202.99,860.56 203.08,860.02 203.20,859.50 203.35,859.00 203.52,858.52 203.71,858.07 203.94,857.64 204.19,857.23 204.46,856.84 204.76,856.47 205.09,856.13 205.44,855.81 205.82,855.50 206.22,855.23 206.65,854.97 207.11,854.74 207.59,854.52 208.10,854.33 208.63,854.16 209.20,854.02"/>
    </edge>
    <edge id=":J108_3" function="internal">
        <lane id=":J108_3_0" index="0" speed="7.26" length="11.53" width="3.00" shape="209.89,856.94 209.52,857.03 209.18,857.15 208.85,857.28 208.54,857.42 208.24,857.59 207.96,857.77 207.70,857.96 207.46,858.18 207.24,858.41 207.03,858.65 206.84,858.92 206.67,859.20 206.52,859.49 206.38,859.81 206.26,860.14 206.16,860.48 206.07,860.85 206.01,861.23 205.96,861.62 205.92,862.04 205.91,862.47 205.91,862.91 205.93,863.38 205.97,863.86 206.03,864.35 206.10,864.87 206.19,865.40 206.30,865.94 206.42,866.51"/>
    </edge>
    <edge id=":J108_4" function="internal">
        <lane id=":J108_4_0" index="0" speed="11.11" length="14.07" width="3.00" shape="209.89,856.94 196.20,860.18"/>
    </edge>
    <edge id=":J108_5" function="internal">
        <lane id=":J108_5_0" index="0" speed="9.13" length="3.03" width="3.00" shape="209.89,856.94 209.32,857.05 208.76,857.13 208.22,857.17 207.69,857.17 207.16,857.14 206.88,857.09"/>
    </edge>
    <edge id=":J108_13" function="internal">
        <lane id=":J108_13_0" index="0" speed="9.13" length="15.93" width="3.00" shape="206.88,857.09 206.66,857.06 206.16,856.95 205.68,856.80 205.20,856.61 204.74,856.38 204.30,856.11 203.86,855.81 203.44,855.46 203.02,855.08 202.62,854.66 202.24,854.20 201.86,853.71 201.50,853.17 201.15,852.60 200.81,851.99 200.48,851.34 200.16,850.65 199.86,849.92 199.57,849.15 199.29,848.35 199.02,847.51 198.77,846.63 198.52,845.71 198.29,844.75"/>
    </edge>
    <edge id=":J108_6" function="internal">
        <lane id=":J108_6_0" index="0" speed="6.44" length="8.93" width="3.00" shape="201.21,844.08 201.31,844.44 201.41,844.79 201.52,845.12 201.63,845.43 201.76,845.73 201.90,846.02 202.05,846.28 202.21,846.54 202.38,846.77 202.56,846.99 202.75,847.20 202.95,847.38 203.15,847.56 203.37,847.71 203.60,847.86 203.84,847.98 204.08,848.09 204.34,848.19 204.61,848.26 204.88,848.33 205.17,848.37 205.47,848.40 205.77,848.42 206.09,848.42 206.41,848.40 206.75,848.37 207.09,848.32 207.45,848.26 207.81,848.18"/>
    </edge>
    <edge id=":J108_7" function="internal">
        <lane id=":J108_7_0" index="0" speed="11.11" length="23.02" width="3.00" shape="201.21,844.08 206.42,866.51"/>
    </edge>
    <edge id=":J108_8" function="internal">
        <lane id=":J108_8_0" index="0" speed="9.18" length="18.96" width="3.00" shape="201.21,844.08 201.43,845.04 201.61,845.97 201.77,846.87 201.89,847.75 202.00,848.59 202.07,849.41 202.12,850.19 202.14,850.95 202.13,851.68 202.09,852.38 202.03,853.05 201.94,853.69 201.82,854.31 201.67,854.89 201.50,855.45 201.30,855.97 201.07,856.47 200.82,856.94 200.53,857.38 200.22,857.79 199.89,858.17 199.52,858.52 199.13,858.85 198.71,859.14 198.26,859.41 197.79,859.65 197.28,859.85 196.75,860.03 196.20,860.18"/>
    </edge>
    <edge id=":J108_9" function="internal">
        <lane id=":J108_9_0" index="0" speed="7.27" length="11.55" width="3.00" shape="194.81,854.35 195.17,854.25 195.52,854.14 195.85,854.01 196.16,853.86 196.45,853.69 196.73,853.51 196.99,853.32 197.23,853.10 197.46,852.87 197.66,852.63 197.85,852.36 198.02,852.08 198.18,851.78 198.32,851.47 198.44,851.14 198.54,850.79 198.63,850.43 198.69,850.05 198.74,849.65 198.78,849.23 198.79,848.80 198.79,848.36 198.77,847.89 198.74,847.41 198.68,846.91 198.61,846.40 198.52,845.87 198.42,845.32 198.29,844.75"/>
    </edge>
    <edge id=":J108_10" function="internal">
        <lane id=":J108_10_0" index="0" speed="11.11" length="14.08" width="3.00" shape="194.81,854.35 208.50,851.10"/>
        <lane id=":J108_10_1" index="1" speed="11.11" length="14.08" width="3.00" shape="195.50,857.26 209.20,854.02"/>
    </edge>
    <edge id=":J108_12" function="internal">
        <lane id=":J108_12_0" index="0" speed="8.52" length="3.37" width="3.00" shape="195.50,857.26 196.07,857.14 196.62,857.06 197.16,857.00 197.68,856.97 198.19,856.98 198.69,857.01 198.84,857.03"/>
    </edge>
    <edge id=":J108_14" function="internal">
        <lane id=":J108_14_0" index="0" speed="8.52" length="12.95" width="3.00" shape="198.84,857.03 199.18,857.08 199.65,857.18 200.10,857.31 200.55,857.47 200.98,857.67 201.40,857.89 201.80,858.15 202.19,858.43 202.57,858.75 202.93,859.10 203.28,859.48 203.61,859.90 203.94,860.34 204.25,860.82 204.54,861.32 204.82,861.86 205.09,862.43 205.35,863.03 205.59,863.66 205.82,864.33 206.03,865.02 206.23,865.75 206.42,866.51"/>
    </edge>
    <edge id=":J11_0" function="internal">
        <lane id=":J11_0_0" index="0" speed="6.57" length="9.32" width="3.75" shape="899.53,997.24 899.43,996.85 899.32,996.47 899.21,996.11 899.08,995.77 898.94,995.45 898.80,995.14 898.64,994.84 898.47,994.57 898.30,994.31 898.12,994.07 897.92,993.85 897.72,993.64 897.51,993.45 897.28,993.27 897.05,993.12 896.81,992.98 896.56,992.85 896.30,992.75 896.03,992.66 895.75,992.59 895.46,992.53 895.16,992.49 894.86,992.47 894.54,992.47 894.21,992.48 893.87,992.51 893.53,992.55 893.17,992.62 892.81,992.70"/>
    </edge>
    <edge id=":J11_1" function="internal">
        <lane id=":J11_1_0" index="0" speed="6.65" length="9.23" width="3.00" shape="906.44,989.55 906.08,989.65 905.74,989.75 905.41,989.87 905.10,989.99 904.80,990.13 904.52,990.28 904.26,990.44 904.01,990.60 903.78,990.78 903.56,990.97 903.36,991.17 903.17,991.38 903.00,991.60 902.85,991.83 902.71,992.08 902.59,992.33 902.49,992.59 902.40,992.86 902.32,993.15 902.26,993.44 902.22,993.74 902.19,994.06 902.18,994.39 902.19,994.72 902.21,995.07 902.25,995.42 902.30,995.79 902.37,996.17 902.45,996.56"/>
    </edge>
    <edge id=":J11_2" function="internal">
        <lane id=":J11_2_0" index="0" speed="16.67" length="13.97" width="3.75" shape="906.44,989.55 892.81,992.70"/>
        <lane id=":J11_2_1" index="1" speed="16.67" length="13.97" width="3.75" shape="905.55,985.91 891.94,989.05"/>
        <lane id=":J11_2_2" index="2" speed="16.67" length="13.97" width="3.75" shape="904.66,982.27 891.07,985.40"/>
    </edge>
    <edge id=":J111_0" function="internal">
        <lane id=":J111_0_0" index="0" speed="6.46" length="8.93" width="3.00" shape="772.54,835.05 772.45,834.68 772.34,834.34 772.23,834.01 772.11,833.70 771.98,833.40 771.84,833.12 771.69,832.85 771.53,832.60 771.36,832.36 771.18,832.14 770.99,831.94 770.79,831.75 770.58,831.58 770.36,831.42 770.13,831.28 769.89,831.16 769.65,831.05 769.39,830.95 769.12,830.88 768.84,830.81 768.56,830.77 768.26,830.74 767.95,830.72 767.64,830.72 767.31,830.74 766.98,830.77 766.63,830.82 766.28,830.88 765.91,830.96"/>
    </edge>
    <edge id=":J111_1" function="internal">
        <lane id=":J111_1_0" index="0" speed="11.11" length="14.00" width="3.00" shape="772.54,835.05 769.30,821.43"/>
        <lane id=":J111_1_1" index="1" speed="11.11" length="14.00" width="3.00" shape="775.46,834.35 772.22,820.73"/>
    </edge>
    <edge id=":J111_3" function="internal">
        <lane id=":J111_3_0" index="0" speed="11.11" length="14.15" width="3.00" shape="778.06,819.35 778.23,820.04 778.42,820.68 778.61,821.27 778.81,821.81 779.01,822.32 779.22,822.79 779.43,823.22 779.65,823.62 779.87,824.00 780.10,824.36 780.33,824.70 780.56,825.03 780.79,825.34 781.02,825.65 781.25,825.96 781.49,826.27 781.72,826.59 781.95,826.92 782.18,827.26 782.40,827.61 782.62,827.99 782.84,828.40 783.06,828.83 783.26,829.30 783.47,829.80 783.66,830.35 783.86,830.94 784.04,831.58 784.21,832.27"/>
        <lane id=":J111_3_1" index="1" speed="11.11" length="14.15" width="3.00" shape="778.06,819.35 781.30,832.96"/>
        <lane id=":J111_3_2" index="2" speed="11.11" length="14.15" width="3.00" shape="775.14,820.04 778.38,833.66"/>
    </edge>
    <edge id=":J111_6" function="internal">
        <lane id=":J111_6_0" index="0" speed="8.52" length="3.36" width="3.00" shape="775.14,820.04 775.26,820.60 775.35,821.15 775.41,821.69 775.43,822.21 775.43,822.72 775.39,823.22 775.37,823.37"/>
    </edge>
    <edge id=":J111_9" function="internal">
        <lane id=":J111_9_0" index="0" speed="8.52" length="12.95" width="3.00" shape="775.37,823.37 775.32,823.71 775.22,824.18 775.09,824.63 774.93,825.08 774.74,825.51 774.51,825.92 774.26,826.33 773.97,826.72 773.65,827.09 773.30,827.46 772.92,827.81 772.51,828.14 772.07,828.47 771.59,828.78 771.09,829.07 770.55,829.36 769.98,829.63 769.38,829.88 768.75,830.13 768.09,830.36 767.39,830.57 766.67,830.77 765.91,830.96"/>
    </edge>
    <edge id=":J111_7" function="internal">
        <lane id=":J111_7_0" index="0" speed="6.45" length="8.93" width="3.00" shape="765.22,828.04 765.58,827.95 765.93,827.85 766.26,827.74 766.57,827.62 766.87,827.49 767.15,827.35 767.42,827.20 767.67,827.03 767.91,826.86 768.13,826.69 768.33,826.50 768.52,826.30 768.69,826.09 768.85,825.87 768.99,825.64 769.11,825.40 769.22,825.16 769.31,824.90 769.39,824.63 769.45,824.35 769.50,824.07 769.53,823.77 769.55,823.47 769.54,823.15 769.53,822.82 769.50,822.49 769.45,822.14 769.38,821.79 769.30,821.43"/>
    </edge>
    <edge id=":J111_8" function="internal">
        <lane id=":J111_8_0" index="0" speed="8.52" length="16.30" width="3.00" shape="765.22,828.04 765.98,827.88 766.72,827.73 767.44,827.61 768.13,827.52 768.81,827.46 769.46,827.42 770.09,827.40 770.69,827.41 771.28,827.45 771.84,827.52 772.38,827.60 772.90,827.72 773.40,827.86 773.88,828.03 774.33,828.22 774.76,828.44 775.17,828.69 775.56,828.96 775.93,829.26 776.27,829.58 776.59,829.93 776.89,830.31 777.17,830.71 777.43,831.13 777.66,831.59 777.87,832.07 778.06,832.57 778.23,833.10 778.38,833.66"/>
    </edge>
    <edge id=":J112_0" function="internal">
        <lane id=":J112_0_0" index="0" speed="6.44" length="8.93" width="3.00" shape="340.59,965.18 340.50,964.82 340.41,964.47 340.30,964.14 340.18,963.82 340.05,963.53 339.91,963.24 339.77,962.97 339.61,962.72 339.44,962.48 339.26,962.26 339.07,962.06 338.88,961.87 338.67,961.69 338.45,961.54 338.23,961.39 337.99,961.27 337.74,961.16 337.49,961.06 337.22,960.98 336.94,960.92 336.66,960.87 336.36,960.84 336.06,960.82 335.74,960.82 335.41,960.84 335.08,960.87 334.73,960.92 334.38,960.98 334.01,961.06"/>
    </edge>
    <edge id=":J112_1" function="internal">
        <lane id=":J112_1_0" index="0" speed="11.11" length="14.00" width="3.00" shape="340.59,965.18 337.51,951.53"/>
        <lane id=":J112_1_1" index="1" speed="11.11" length="14.00" width="3.00" shape="343.52,964.52 340.44,950.87"/>
    </edge>
    <edge id=":J112_3" function="internal">
        <lane id=":J112_3_0" index="0" speed="11.11" length="14.00" width="3.00" shape="349.23,948.88 352.30,962.54"/>
        <lane id=":J112_3_1" index="1" speed="11.11" length="14.00" width="3.00" shape="346.31,949.54 349.37,963.20"/>