<?xml version="1.0" encoding="UTF-8"?>

<!-- generated on 2023-11-22 20:13:23 by Eclipse SUMO netedit Version 1.19.0
<configuration xmlns:xsi="http://www.w3.org/2001/XMLSchema-instance" xsi:noNamespaceSchemaLocation="http://sumo.dlr.de/xsd/neteditConfiguration.xsd">

    <input>
        <additional-files value="taz.add.xml"/>
        <sumo-net-file value="D:\YandexDisk\lvl80\UlyDala\Sumo\UlyDala\basic.net.xml"/>
    </input>

    <output>
        <output-file value="D:\YandexDisk\lvl80\UlyDala\Sumo\UlyDala\basic.net.xml"/>
    </output>

    <processing>
        <geometry.min-radius.fix.railways value="false"/>
        <geometry.max-grade.fix value="false"/>
        <offset.disable-normalization value="true"/>
        <lefthand value="0"/>
    </processing>

    <junctions>
        <no-turnarounds value="true"/>
        <junctions.corner-detail value="10"/>
        <junctions.internal-link-detail value="10"/>
        <junctions.limit-turn-speed value="5.50"/>
        <rectangular-lane-cut value="0"/>
    </junctions>

    <pedestrian>
        <walkingareas value="0"/>
    </pedestrian>

    <visualisation>
        <gui-settings-file value="background/background_config.xml"/>
    </visualisation>

</configuration>
-->

<net version="1.16" junctionCornerDetail="10" junctionLinkDetail="10" limitTurnSpeed="5.50" xmlns:xsi="http://www.w3.org/2001/XMLSchema-instance" xsi:noNamespaceSchemaLocation="http://sumo.dlr.de/xsd/net_file.xsd">

    <location netOffset="0.00,0.00" convBoundary="-1387.22,-1511.96,1618.93,1632.95" origBoundary="-10000000000.00,-10000000000.00,10000000000.00,10000000000.00" projParameter="!"/>

    <edge id=":J0_0" function="internal">
        <lane id=":J0_0_0" index="0" speed="16.67" length="11.51" width="3.75" shape="-690.66,-484.65 -690.18,-482.95 -690.04,-481.54 -690.13,-480.32 -690.36,-479.23 -690.63,-478.18 -690.86,-477.09 -690.95,-475.88 -690.80,-474.46 -690.32,-472.77"/>
        <lane id=":J0_0_1" index="1" speed="16.67" length="11.51" width="3.75" shape="-694.19,-483.38 -690.32,-472.77"/>
        <lane id=":J0_0_2" index="2" speed="16.67" length="11.51" width="3.75" shape="-697.72,-482.12 -693.84,-471.49"/>
        <lane id=":J0_0_3" index="3" speed="16.67" length="11.51" width="3.75" shape="-701.25,-480.85 -697.37,-470.21"/>
    </edge>
    <edge id=":J1_0" function="internal">
        <lane id=":J1_0_0" index="0" speed="6.42" length="8.92" width="3.00" shape="752.22,733.76 751.89,732.65 751.46,731.70 750.92,730.92 750.29,730.31 749.55,729.86 748.72,729.57 747.78,729.46 746.74,729.50 745.60,729.72"/>
    </edge>
    <edge id=":J1_1" function="internal">
        <lane id=":J1_1_0" index="0" speed="8.53" length="16.31" width="3.00" shape="752.22,733.76 751.95,731.98 752.00,730.34 752.38,728.84 753.08,727.49 754.10,726.27 755.45,725.19 757.12,724.25 759.12,723.45 761.44,722.78"/>
    </edge>
    <edge id=":J1_2" function="internal">
        <lane id=":J1_2_0" index="0" speed="6.47" length="8.96" width="3.00" shape="762.14,725.70 761.03,726.04 760.09,726.47 759.31,727.01 758.69,727.65 758.24,728.39 757.95,729.24 757.82,730.18 757.86,731.23 758.06,732.38"/>
    </edge>
    <edge id=":J1_3" function="internal">
        <lane id=":J1_3_0" index="0" speed="11.11" length="17.02" width="3.00" shape="762.14,725.70 745.60,729.72"/>
    </edge>
    <edge id=":J1_4" function="internal">
        <lane id=":J1_4_0" index="0" speed="11.11" length="17.05" width="3.00" shape="744.88,726.81 761.44,722.78"/>
    </edge>
    <edge id=":J1_5" function="internal">
        <lane id=":J1_5_0" index="0" speed="7.85" length="3.85" width="3.00" shape="744.88,726.81 746.64,726.48 748.25,726.40 748.69,726.46"/>
    </edge>
    <edge id=":J1_6" function="internal">
        <lane id=":J1_6_0" index="0" speed="7.85" length="9.97" width="3.00" shape="748.69,726.46 749.71,726.58 751.01,727.02 752.15,727.72 753.13,728.67 753.96,729.88 754.63,731.35 755.14,733.07"/>
    </edge>
    <edge id=":J104_0" function="internal">
        <lane id=":J104_0_0" index="0" speed="6.44" length="8.92" width="3.00" shape="585.38,987.67 585.05,986.56 584.62,985.61 584.09,984.83 583.46,984.21 582.72,983.76 581.89,983.46 580.95,983.34 579.91,983.37 578.77,983.57"/>
    </edge>
    <edge id=":J104_1" function="internal">
        <lane id=":J104_1_0" index="0" speed="11.11" length="14.03" width="3.00" shape="585.38,987.67 582.18,974.01"/>
    </edge>
    <edge id=":J104_2" function="internal">
        <lane id=":J104_2_0" index="0" speed="7.91" length="3.77" width="3.00" shape="585.38,987.67 585.07,985.91 585.02,984.30 585.08,983.92"/>
    </edge>
    <edge id=":J104_12" function="internal">
        <lane id=":J104_12_0" index="0" speed="7.91" length="10.04" width="3.00" shape="585.08,983.92 585.23,982.85 585.68,981.55 586.38,980.41 587.34,979.42 588.55,978.59 590.01,977.91 591.72,977.39"/>
    </edge>
    <edge id=":J104_3" function="internal">
        <lane id=":J104_3_0" index="0" speed="6.49" length="8.98" width="3.00" shape="592.43,980.31 591.31,980.65 590.36,981.09 589.58,981.63 588.95,982.27 588.50,983.01 588.20,983.86 588.07,984.80 588.10,985.84 588.30,986.99"/>
    </edge>
    <edge id=":J104_4" function="internal">
        <lane id=":J104_4_0" index="0" speed="11.11" length="14.04" width="3.00" shape="592.43,980.31 578.77,983.57"/>
    </edge>
    <edge id=":J104_5" function="internal">
        <lane id=":J104_5_0" index="0" speed="7.86" length="13.80" width="3.00" shape="592.43,980.31 590.66,980.63 589.05,980.69 587.60,980.50 586.31,980.05 585.17,979.35 584.19,978.40 583.36,977.19 582.70,975.73 582.18,974.01"/>
    </edge>
    <edge id=":J104_6" function="internal">
        <lane id=":J104_6_0" index="0" speed="6.43" length="8.92" width="3.00" shape="585.11,973.32 585.44,974.43 585.87,975.38 586.40,976.16 587.03,976.78 587.77,977.23 588.61,977.52 589.54,977.64 590.58,977.60 591.72,977.39"/>
    </edge>
    <edge id=":J104_7" function="internal">
        <lane id=":J104_7_0" index="0" speed="11.11" length="14.03" width="3.00" shape="585.11,973.32 588.30,986.99"/>
    </edge>
    <edge id=":J104_8" function="internal">
        <lane id=":J104_8_0" index="0" speed="7.89" length="3.80" width="3.00" shape="585.11,973.32 585.41,975.09 585.47,976.70 585.41,977.09"/>
    </edge>
    <edge id=":J104_13" function="internal">
        <lane id=":J104_13_0" index="0" speed="7.89" length="10.00" width="3.00" shape="585.41,977.09 585.27,978.15 584.82,979.44 584.11,980.58 583.16,981.56 581.95,982.39 580.49,983.06 578.77,983.57"/>
    </edge>
    <edge id=":J104_9" function="internal">
        <lane id=":J104_9_0" index="0" speed="6.46" length="8.95" width="3.00" shape="578.08,980.65 579.19,980.32 580.14,979.88 580.92,979.35 581.54,978.71 582.00,977.98 582.29,977.14 582.42,976.20 582.38,975.15 582.18,974.01"/>
    </edge>
    <edge id=":J104_10" function="internal">
        <lane id=":J104_10_0" index="0" speed="11.11" length="14.02" width="3.00" shape="578.08,980.65 591.72,977.39"/>
    </edge>
    <edge id=":J104_11" function="internal">
        <lane id=":J104_11_0" index="0" speed="7.87" length="13.79" width="3.00" shape="578.08,980.65 579.85,980.34 581.45,980.29 582.90,980.49 584.19,980.94 585.33,981.64 586.31,982.60 587.13,983.81 587.79,985.27 588.30,986.99"/>
    </edge>
    <edge id=":J106_0" function="internal">
        <lane id=":J106_0_0" index="0" speed="6.41" length="8.92" width="3.00" shape="138.10,1094.21 137.78,1093.09 137.36,1092.14 136.83,1091.36 136.20,1090.74 135.47,1090.28 134.64,1089.99 133.70,1089.87 132.66,1089.91 131.52,1090.12"/>
    </edge>
    <edge id=":J106_1" function="internal">
        <lane id=":J106_1_0" index="0" speed="11.11" length="14.07" width="3.00" shape="138.10,1094.21 135.02,1080.48"/>
    </edge>
    <edge id=":J106_2" function="internal">
        <lane id=":J106_2_0" index="0" speed="7.91" length="3.80" width="3.00" shape="138.10,1094.21 137.81,1092.44 137.77,1090.82 137.83,1090.43"/>
    </edge>
    <edge id=":J106_12" function="internal">
        <lane id=":J106_12_0" index="0" speed="7.91" length="10.04" width="3.00" shape="137.83,1090.43 137.98,1089.37 138.44,1088.07 139.16,1086.93 140.12,1085.95 141.34,1085.13 142.80,1084.47 144.52,1083.96"/>
    </edge>
    <edge id=":J106_3" function="internal">
        <lane id=":J106_3_0" index="0" speed="6.49" length="9.00" width="3.00" shape="145.19,1086.89 144.08,1087.21 143.13,1087.64 142.34,1088.18 141.71,1088.82 141.25,1089.56 140.95,1090.40 140.81,1091.35 140.84,1092.40 141.03,1093.55"/>
    </edge>
    <edge id=":J106_4" function="internal">
        <lane id=":J106_4_0" index="0" speed="11.11" length="14.05" width="3.00" shape="145.19,1086.89 131.52,1090.12"/>
    </edge>
    <edge id=":J106_5" function="internal">
        <lane id=":J106_5_0" index="0" speed="7.87" length="13.80" width="3.00" shape="145.19,1086.89 143.43,1087.19 141.82,1087.23 140.37,1087.03 139.08,1086.57 137.95,1085.86 136.98,1084.89 136.17,1083.68 135.51,1082.21 135.02,1080.48"/>
    </edge>
    <edge id=":J106_6" function="internal">
        <lane id=":J106_6_0" index="0" speed="6.44" length="8.92" width="3.00" shape="137.94,1079.83 138.26,1080.94 138.69,1081.89 139.21,1082.67 139.84,1083.30 140.57,1083.76 141.40,1084.05 142.34,1084.19 143.38,1084.16 144.52,1083.96"/>
    </edge>
    <edge id=":J106_7" function="internal">
        <lane id=":J106_7_0" index="0" speed="11.11" length="14.07" width="3.00" shape="137.94,1079.83 141.03,1093.55"/>
    </edge>
    <edge id=":J106_8" function="internal">
        <lane id=":J106_8_0" index="0" speed="7.94" length="3.79" width="3.00" shape="137.94,1079.83 138.23,1081.59 138.27,1083.20 138.21,1083.59"/>
    </edge>
    <edge id=":J106_13" function="internal">
        <lane id=":J106_13_0" index="0" speed="7.94" length="10.07" width="3.00" shape="138.21,1083.59 138.06,1084.65 137.60,1085.95 136.88,1087.09 135.92,1088.08 134.70,1088.92 133.24,1089.59 131.52,1090.12"/>
    </edge>
    <edge id=":J106_9" function="internal">
        <lane id=":J106_9_0" index="0" speed="6.53" length="9.05" width="3.00" shape="130.81,1087.20 131.94,1086.86 132.89,1086.42 133.69,1085.87 134.32,1085.23 134.79,1084.48 135.09,1083.63 135.23,1082.68 135.21,1081.64 135.02,1080.48"/>
    </edge>
    <edge id=":J106_10" function="internal">
        <lane id=":J106_10_0" index="0" speed="11.11" length="14.08" width="3.00" shape="130.81,1087.20 144.52,1083.96"/>
    </edge>
    <edge id=":J106_11" function="internal">
        <lane id=":J106_11_0" index="0" speed="7.84" length="13.84" width="3.00" shape="130.81,1087.20 132.59,1086.88 134.20,1086.82 135.65,1087.01 136.95,1087.46 138.08,1088.16 139.06,1089.13 139.87,1090.35 140.53,1091.82 141.03,1093.55"/>
    </edge>
    <edge id=":J108_0" function="internal">
        <lane id=":J108_0_0" index="0" speed="6.46" length="8.94" width="3.00" shape="141.32,878.28 140.98,877.17 140.55,876.22 140.01,875.44 139.37,874.82 138.63,874.36 137.80,874.07 136.86,873.94 135.82,873.98 134.68,874.18"/>
    </edge>
    <edge id=":J108_1" function="internal">
        <lane id=":J108_1_0" index="0" speed="7.86" length="13.81" width="3.00" shape="141.32,878.28 141.00,876.51 140.94,874.91 141.14,873.45 141.59,872.16 142.29,871.02 143.25,870.05 144.46,869.22 145.92,868.56 147.64,868.05"/>
    </edge>
    <edge id=":J108_2" function="internal">
        <lane id=":J108_2_0" index="0" speed="6.43" length="8.92" width="3.00" shape="148.32,870.98 147.21,871.30 146.26,871.73 145.48,872.26 144.86,872.89 144.41,873.63 144.12,874.46 143.99,875.40 144.03,876.44 144.24,877.58"/>
    </edge>
    <edge id=":J108_3" function="internal">
        <lane id=":J108_3_0" index="0" speed="11.11" length="14.01" width="3.00" shape="148.32,870.98 134.68,874.18"/>
    </edge>
    <edge id=":J108_4" function="internal">
        <lane id=":J108_4_0" index="0" speed="11.11" length="14.03" width="3.00" shape="133.99,871.26 147.64,868.05"/>
    </edge>
    <edge id=":J108_5" function="internal">
        <lane id=":J108_5_0" index="0" speed="7.88" length="3.81" width="3.00" shape="133.99,871.26 135.75,870.95 137.35,870.89 137.76,870.95"/>
    </edge>
    <edge id=":J108_6" function="internal">
        <lane id=":J108_6_0" index="0" speed="7.88" length="9.99" width="3.00" shape="137.76,870.95 138.80,871.09 140.09,871.54 141.23,872.24 142.21,873.19 143.04,874.40 143.72,875.86 144.24,877.58"/>
    </edge>
    <edge id=":J11_0" function="internal">
        <lane id=":J11_0_0" index="0" speed="6.57" length="9.20" width="3.75" shape="899.52,997.21 899.18,996.02 898.73,995.00 898.19,994.16 897.55,993.49 896.81,992.98 895.97,992.65 895.03,992.49 894.00,992.49 892.87,992.67"/>
    </edge>
    <edge id=":J11_1" function="internal">
        <lane id=":J11_1_0" index="0" speed="6.63" length="9.16" width="3.00" shape="906.41,989.56 905.31,989.90 904.38,990.35 903.61,990.91 903.01,991.57 902.57,992.35 902.29,993.23 902.18,994.22 902.23,995.32 902.44,996.52"/>
    </edge>
    <edge id=":J11_2" function="internal">
        <lane id=":J11_2_0" index="0" speed="16.67" length="13.82" width="3.75" shape="906.41,989.56 892.87,992.67"/>
        <lane id=":J11_2_1" index="1" speed="16.67" length="13.82" width="3.75" shape="905.52,985.92 892.05,989.01"/>
        <lane id=":J11_2_2" index="2" speed="16.67" length="13.82" width="3.75" shape="904.63,982.27 891.23,985.35"/>
    </edge>
    <edge id=":J111_0" function="internal">
        <lane id=":J111_0_0" index="0" speed="6.45" length="8.92" width="3.00" shape="799.75,935.92 799.42,934.81 798.99,933.87 798.46,933.08 797.82,932.47 797.09,932.01 796.25,931.72 795.32,931.59 794.28,931.63 793.14,931.83"/>
    </edge>
    <edge id=":J111_1" function="internal">
        <lane id=":J111_1_0" index="0" speed="11.11" length="14.04" width="3.00" shape="799.75,935.92 796.54,922.25"/>
    </edge>
    <edge id=":J111_2" function="internal">
        <lane id=":J111_2_0" index="0" speed="8.54" length="3.42" width="3.00" shape="799.75,935.92 799.48,934.15 799.54,932.52"/>
    </edge>
    <edge id=":J111_12" function="internal">
        <lane id=":J111_12_0" index="0" speed="8.54" length="12.89" width="3.00" shape="799.54,932.52 799.92,931.03 800.62,929.67 801.65,928.45 803.00,927.37 804.67,926.43 806.67,925.62 809.00,924.95"/>
    </edge>
    <edge id=":J111_3" function="internal">
        <lane id=":J111_3_0" index="0" speed="6.48" length="8.97" width="3.00" shape="809.70,927.87 808.59,928.21 807.64,928.65 806.86,929.19 806.24,929.83 805.78,930.57 805.49,931.41 805.36,932.36 805.39,933.40 805.59,934.55"/>
    </edge>
    <edge id=":J111_4" function="internal">
        <lane id=":J111_4_0" index="0" speed="11.11" length="17.03" width="3.00" shape="809.70,927.87 793.14,931.83"/>
    </edge>
    <edge id=":J111_5" function="internal">
        <lane id=":J111_5_0" index="0" speed="8.51" length="16.31" width="3.00" shape="809.70,927.87 807.32,928.33 805.18,928.53 803.26,928.45 801.57,928.09 800.10,927.47 798.87,926.58 797.87,925.41 797.09,923.97 796.54,922.25"/>
    </edge>
    <edge id=":J111_6" function="internal">
        <lane id=":J111_6_0" index="0" speed="6.44" length="8.92" width="3.00" shape="802.38,920.88 802.71,921.99 803.14,922.94 803.68,923.72 804.31,924.33 805.04,924.79 805.88,925.07 806.82,925.20 807.86,925.16 809.00,924.95"/>
    </edge>
    <edge id=":J111_7" function="internal">
        <lane id=":J111_7_0" index="0" speed="11.11" length="14.04" width="3.00" shape="802.38,920.88 805.59,934.55"/>
        <lane id=":J111_7_1" index="1" speed="11.11" length="14.04" width="3.00" shape="799.46,921.57 802.67,935.23"/>
    </edge>
    <edge id=":J111_9" function="internal">
        <lane id=":J111_9_0" index="0" speed="7.89" length="3.80" width="3.00" shape="799.46,921.57 799.77,923.34 799.82,924.95 799.77,925.34"/>
    </edge>
    <edge id=":J111_13" function="internal">
        <lane id=":J111_13_0" index="0" speed="7.89" length="10.01" width="3.00" shape="799.77,925.34 799.63,926.40 799.18,927.70 798.47,928.84 797.52,929.82 796.31,930.65 794.85,931.31 793.14,931.83"/>
    </edge>
    <edge id=":J111_10" function="internal">
        <lane id=":J111_10_0" index="0" speed="6.46" length="8.95" width="3.00" shape="792.45,928.91 793.56,928.57 794.50,928.14 795.29,927.61 795.90,926.97 796.36,926.23 796.65,925.39 796.78,924.45 796.74,923.40 796.54,922.25"/>
    </edge>
    <edge id=":J111_11" function="internal">
        <lane id=":J111_11_0" index="0" speed="11.11" length="17.01" width="3.00" shape="792.45,928.91 809.00,924.95"/>
    </edge>
    <edge id=":J112_0" function="internal">
        <lane id=":J112_0_0" index="0" speed="6.40" length="8.92" width="3.00" shape="360.90,1041.04 360.58,1039.93 360.16,1038.97 359.63,1038.19 359.01,1037.57 358.27,1037.12 357.44,1036.83 356.50,1036.71 355.46,1036.76 354.32,1036.97"/>
    </edge>
    <edge id=":J112_1" function="internal">
        <lane id=":J112_1_0" index="0" speed="11.11" length="14.12" width="3.00" shape="360.90,1041.04 357.80,1027.26"/>
    </edge>
    <edge id=":J112_2" function="internal">
        <lane id=":J112_2_0" index="0" speed="8.58" length="3.45" width="3.00" shape="360.90,1041.04 360.65,1039.26 360.72,1037.62"/>
    </edge>
    <edge id=":J112_12" function="internal">
        <lane id=":J112_12_0" index="0" speed="8.58" length="12.94" width="3.00" shape="360.72,1037.62 361.11,1036.11 361.82,1034.75 362.86,1033.53 364.22,1032.45 365.90,1031.51 367.91,1030.71 370.23,1030.05"/>
    </edge>
    <edge id=":J112_3" function="internal">
        <lane id=":J112_3_0" index="0" speed="6.53" length="9.08" width="3.00" shape="370.93,1032.96 369.81,1033.30 368.85,1033.74 368.06,1034.28 367.44,1034.93 366.97,1035.68 366.67,1036.54 366.54,1037.50 366.57,1038.56 366.76,1039.73"/>
    </edge>
    <edge id=":J112_4" function="internal">
        <lane id=":J112_4_0" index="0" speed="11.11" length="17.08" width="3.00" shape="370.93,1032.96 354.32,1036.97"/>
    </edge>
    <edge id=":J112_5" function="internal">
        <lane id=":J112_5_0" index="0" speed="8.50" length="16.34" width="3.00" shape="370.93,1032.96 368.55,1033.42 366.39,1033.60 364.47,1033.52 362.79,1033.15 361.33,1032.52 360.10,1031.61 359.10,1030.44 358.33,1028.99 357.80,1027.26"/>
    </edge>
    <edge id=":J112_6" function="internal">
        <lane id=":J112_6_0" index="0" speed="6.43" length="8.92" width="3.00" shape="363.65,1025.94 363.97,1027.05 364.40,1028.00 364.92,1028.79 365.55,1029.41 366.28,1029.86 367.12,1030.15 368.05,1030.28 369.09,1030.25 370.23,1030.05"/>
    </edge>
    <edge id=":J112_7" function="internal">
        <lane id=":J112_7_0" index="0" speed="11.11" length="14.13" width="3.00" shape="363.65,1025.94 366.76,1039.73"/>
        <lane id=":J112_7_1" index="1" speed="11.11" length="14.13" width="3.00" shape="360.72,1026.60 363.83,1040.38"/>
    </edge>
    <edge id=":J112_9" function="internal">
        <lane id=":J112_9_0" index="0" speed="7.97" length="3.81" width="3.00" shape="360.72,1026.60 361.02,1028.37 361.06,1029.99 361.00,1030.39"/>
    </edge>
    <edge id=":J112_13" function="internal">
        <lane id=":J112_13_0" index="0" speed="7.97" length="10.10" width="3.00" shape="361.00,1030.39 360.85,1031.45 360.39,1032.76 359.68,1033.91 358.72,1034.91 357.50,1035.75 356.04,1036.44 354.32,1036.97"/>
    </edge>
    <edge id=":J112_10" function="internal">
        <lane id=":J112_10_0" index="0" speed="6.56" length="9.11" width="3.00" shape="353.60,1034.06 354.73,1033.71 355.69,1033.26 356.48,1032.71 357.11,1032.05 357.58,1031.30 357.88,1030.44 358.02,1029.48 357.99,1028.42 357.80,1027.26"/>
    </edge>
    <edge id=":J112_11" function="internal">
        <lane id=":J112_11_0" index="0" speed="11.11" length="17.11" width="3.00" shape="353.60,1034.06 370.23,1030.05"/>
    </edge>
    <edge id=":J116_0" function="internal">
        <lane id=":J116_0_0" index="0" speed="15.28" length="28.31" width="3.75" shape="-818.40,-854.53 -818.44,-852.74 -818.14,-850.67 -817.54,-848.31 -816.70,-845.65 -815.64,-842.69 -814.40,-839.42 -813.03,-835.82 -811.57,-831.90 -810.06,-827.63"/>
    </edge>
    <edge id=":J116_1" function="internal">
        <lane id=":J116_1_0" index="0" speed="16.67" length="27.12" width="3.75" shape="-823.07,-851.98 -813.61,-826.41"/>
        <lane id=":J116_1_1" index="1" speed="16.67" length="27.12" width="3.75" shape="-826.57,-850.62 -817.15,-825.19"/>
        <lane id=":J116_1_2" index="2" speed="16.67" length="27.12" width="3.75" shape="-830.06,-849.26 -820.70,-823.97"/>
    </edge>
    <edge id=":J117_0" function="internal">
        <lane id=":J117_0_0" index="0" speed="15.28" length="36.25" width="3.75" shape="-845.95,-833.79 -847.83,-839.33 -849.54,-844.53 -851.10,-849.35 -852.54,-853.73 -853.88,-857.65 -855.14,-861.04 -856.34,-863.86 -857.51,-866.06 -858.67,-867.61"/>
    </edge>
    <edge id=":J117_1" function="internal">
        <lane id=":J117_1_0" index="0" speed="16.67" length="37.83" width="3.75" shape="-842.41,-835.02 -855.19,-870.55"/>
        <lane id=":J117_1_1" index="1" speed="16.67" length="37.83" width="3.75" shape="-838.87,-836.25 -851.68,-871.85"/>
        <lane id=":J117_1_2" index="2" speed="16.67" length="37.83" width="3.75" shape="-835.32,-837.48 -848.16,-873.14"/>
    </edge>
    <edge id=":J118_0" function="internal">
        <lane id=":J118_0_0" index="0" speed="6.26" length="8.92" width="3.00" shape="24.12,79.95 23.76,78.82 23.30,77.88 22.75,77.12 22.10,76.55 21.35,76.15 20.51,75.94 19.57,75.90 18.53,76.05 17.40,76.39"/>
    </edge>
    <edge id=":J118_1" function="internal">
        <lane id=":J118_1_0" index="0" speed="8.21" length="13.91" width="3.00" shape="24.12,79.95 23.76,78.16 23.64,76.50 23.76,74.99 24.12,73.61 24.72,72.37 25.57,71.27 26.65,70.31 27.97,69.48 29.53,68.79"/>
    </edge>
    <edge id=":J118_2" function="internal">
        <lane id=":J118_2_0" index="0" speed="6.84" length="9.39" width="3.00" shape="30.57,71.61 29.53,72.07 28.66,72.62 27.94,73.27 27.39,74.02 26.99,74.86 26.76,75.80 26.69,76.84 26.78,77.97 27.03,79.19"/>
    </edge>
    <edge id=":J118_3" function="internal">
        <lane id=":J118_3_0" index="0" speed="11.11" length="14.01" width="3.00" shape="30.57,71.61 17.40,76.39"/>
    </edge>
    <edge id=":J118_4" function="internal">
        <lane id=":J118_4_0" index="0" speed="11.11" length="13.99" width="3.00" shape="16.39,73.56 29.53,68.79"/>
    </edge>
    <edge id=":J118_5" function="internal">
        <lane id=":J118_5_0" index="0" speed="7.72" length="3.80" width="3.00" shape="16.39,73.56 18.18,73.04 19.82,72.80 20.09,72.81"/>
    </edge>
    <edge id=":J118_6" function="internal">
        <lane id=":J118_6_0" index="0" speed="7.72" length="10.31" width="3.00" shape="20.09,72.81 21.30,72.85 22.64,73.19 23.82,73.82 24.85,74.73 25.73,75.93 26.45,77.42 27.03,79.19"/>
    </edge>
    <edge id=":J122_0" function="internal">
        <lane id=":J122_0_0" index="0" speed="6.45" length="8.92" width="3.00" shape="-567.60,-904.47 -567.67,-905.62 -567.87,-906.64 -568.21,-907.53 -568.69,-908.27 -569.30,-908.88 -570.05,-909.36 -570.93,-909.70 -571.95,-909.90 -573.10,-909.97"/>
    </edge>
    <edge id=":J122_1" function="internal">
        <lane id=":J122_1_0" index="0" speed="11.11" length="14.00" width="3.00" shape="-567.60,-904.47 -567.60,-918.47"/>
    </edge>
    <edge id=":J122_2" function="internal">
        <lane id=":J122_2_0" index="0" speed="11.11" length="14.00" width="3.00" shape="-564.60,-918.47 -564.60,-904.47"/>
    </edge>
    <edge id=":J122_3" function="internal">
        <lane id=":J122_3_0" index="0" speed="7.88" length="3.78" width="3.00" shape="-564.60,-918.47 -564.70,-916.68 -565.02,-915.11 -565.16,-914.75"/>
    </edge>
    <edge id=":J122_6" function="internal">
        <lane id=":J122_6_0" index="0" speed="7.88" length="10.00" width="3.00" shape="-565.16,-914.75 -565.54,-913.75 -566.28,-912.59 -567.22,-911.65 -568.38,-910.91 -569.74,-910.39 -571.32,-910.07 -573.10,-909.97"/>
    </edge>
    <edge id=":J122_4" function="internal">
        <lane id=":J122_4_0" index="0" speed="6.45" length="8.92" width="3.00" shape="-573.10,-912.97 -571.95,-913.04 -570.93,-913.24 -570.04,-913.58 -569.30,-914.06 -568.69,-914.67 -568.21,-915.41 -567.87,-916.30 -567.66,-917.32 -567.60,-918.47"/>
    </edge>
    <edge id=":J122_5" function="internal">
        <lane id=":J122_5_0" index="0" speed="7.87" length="13.78" width="3.00" shape="-573.10,-912.97 -571.32,-912.87 -569.74,-912.55 -568.38,-912.03 -567.22,-911.29 -566.28,-910.35 -565.55,-909.19 -565.02,-907.83 -564.71,-906.25 -564.60,-904.47"/>
    </edge>
    <edge id=":J124_0" function="internal">
        <lane id=":J124_0_0" index="0" speed="16.67" length="24.94" width="3.75" shape="476.83,1091.45 452.61,1097.00"/>
        <lane id=":J124_0_1" index="1" speed="16.67" length="24.94" width="3.75" shape="475.98,1087.80 451.77,1093.35"/>
        <lane id=":J124_0_2" index="2" speed="16.67" length="24.94" width="3.75" shape="475.13,1084.15 450.93,1089.69"/>
        <lane id=":J124_0_3" index="3" speed="16.67" length="24.94" width="3.75" shape="475.13,1084.15 471.46,1084.87 468.45,1085.21 465.92,1085.27 463.69,1085.18 461.54,1085.03 459.31,1084.93 456.78,1084.99 453.77,1085.33 450.09,1086.04"/>
    </edge>
    <edge id=":J125_0" function="internal">
        <lane id=":J125_0_0" index="0" speed="16.67" length="23.47" width="3.75" shape="203.50,1159.09 181.00,1165.28"/>
        <lane id=":J125_0_1" index="1" speed="16.67" length="23.47" width="3.75" shape="202.54,1155.47 180.02,1161.66"/>
        <lane id=":J125_0_2" index="2" speed="16.67" length="23.47" width="3.75" shape="201.58,1151.84 179.03,1158.05"/>
        <lane id=":J125_0_3" index="3" speed="16.67" length="23.47" width="3.75" shape="201.58,1151.84 198.14,1152.63 195.31,1153.03 192.93,1153.17 190.82,1153.14 188.79,1153.07 186.68,1153.05 184.30,1153.20 181.49,1153.62 178.05,1154.43"/>
    </edge>
    <edge id=":J126_0" function="internal">
        <lane id=":J126_0_0" index="0" speed="16.67" length="27.36" width="3.75" shape="887.70,993.83 861.16,999.84"/>
        <lane id=":J126_0_1" index="1" speed="16.67" length="27.36" width="3.75" shape="886.88,990.17 860.30,996.19"/>
        <lane id=":J126_0_2" index="2" speed="16.67" length="27.36" width="3.75" shape="886.06,986.51 859.45,992.54"/>
        <lane id=":J126_0_3" index="3" speed="16.67" length="27.36" width="3.75" shape="886.06,986.51 882.02,987.28 878.71,987.66 875.94,987.76 873.49,987.70 871.14,987.59 868.69,987.54 865.92,987.66 862.62,988.07 858.59,988.89"/>
    </edge>
    <edge id=":J127_0" function="internal">
        <lane id=":J127_0_0" index="0" speed="16.67" length="23.02" width="3.75" shape="-3.64,1566.12 -10.28,1544.16"/>
        <lane id=":J127_0_1" index="1" speed="16.67" length="23.02" width="3.75" shape="-0.06,1565.02 -6.69,1543.08"/>
        <lane id=":J127_0_2" index="2" speed="16.67" length="23.02" width="3.75" shape="3.53,1563.92 -3.10,1542.00"/>
        <lane id=":J127_0_3" index="3" speed="16.67" length="23.02" width="3.75" shape="3.53,1563.92 2.64,1560.57 2.16,1557.82 1.97,1555.50 1.96,1553.42 2.01,1551.43 2.01,1549.35 1.83,1547.02 1.36,1544.27 0.49,1540.92"/>
    </edge>
    <edge id=":J128_0" function="internal">
        <lane id=":J128_0_0" index="0" speed="16.67" length="19.92" width="3.75" shape="-147.07,1035.71 -145.96,1038.49 -144.83,1040.63 -143.68,1042.30 -142.53,1043.70 -141.37,1045.00 -140.21,1046.40 -139.05,1048.07 -137.91,1050.20 -136.79,1052.98"/>
        <lane id=":J128_0_1" index="1" speed="16.67" length="19.92" width="3.75" shape="-147.07,1035.71 -140.32,1054.23"/>
        <lane id=":J128_0_2" index="2" speed="16.67" length="19.92" width="3.75" shape="-150.62,1036.94 -143.86,1055.47"/>
        <lane id=":J128_0_3" index="3" speed="16.67" length="19.92" width="3.75" shape="-154.16,1038.17 -147.40,1056.72"/>
        <lane id=":J128_0_4" index="4" speed="16.67" length="19.92" width="3.75" shape="-154.16,1038.17 -153.29,1041.04 -152.81,1043.40 -152.60,1045.41 -152.56,1047.21 -152.57,1048.94 -152.52,1050.73 -152.31,1052.74 -151.81,1055.11 -150.94,1057.96"/>
    </edge>
    <edge id=":J129_0" function="internal">
        <lane id=":J129_0_0" index="0" speed="16.67" length="20.51" width="3.75" shape="-252.03,814.34 -258.87,795.14"/>
        <lane id=":J129_0_1" index="1" speed="16.67" length="20.51" width="3.75" shape="-248.50,813.08 -255.34,793.88"/>
        <lane id=":J129_0_2" index="2" speed="16.67" length="20.51" width="3.75" shape="-244.97,811.82 -251.81,792.61"/>
        <lane id=":J129_0_3" index="3" speed="16.67" length="20.51" width="3.75" shape="-244.97,811.82 -245.88,808.87 -246.39,806.42 -246.59,804.34 -246.63,802.48 -246.60,800.69 -246.64,798.82 -246.85,796.74 -247.36,794.30 -248.28,791.35"/>
    </edge>
    <edge id=":J13_0" function="internal">
        <lane id=":J13_0_0" index="0" speed="6.30" length="9.26" width="3.75" shape="1284.50,857.87 1284.75,859.11 1285.11,860.17 1285.59,861.05 1286.19,861.73 1286.90,862.24 1287.72,862.55 1288.67,862.69 1289.72,862.63 1290.90,862.40"/>
    </edge>
    <edge id=":J13_1" function="internal">
        <lane id=":J13_1_0" index="0" speed="7.09" length="9.81" width="3.00" shape="1277.31,865.99 1278.37,865.63 1279.29,865.15 1280.06,864.55 1280.68,863.82 1281.14,862.96 1281.46,861.98 1281.64,860.88 1281.66,859.65 1281.53,858.29"/>
    </edge>
    <edge id=":J13_2" function="internal">
        <lane id=":J13_2_0" index="0" speed="16.67" length="14.12" width="3.75" shape="1278.25,869.62 1291.87,866.02"/>
        <lane id=":J13_2_1" index="1" speed="16.67" length="14.12" width="3.75" shape="1279.19,873.25 1292.84,869.64"/>
        <lane id=":J13_2_2" index="2" speed="16.67" length="14.12" width="3.75" shape="1280.13,876.88 1293.81,873.26"/>
    </edge>
    <edge id=":J130_0" function="internal">
        <lane id=":J130_0_0" index="0" speed="16.67" length="20.88" width="3.75" shape="-426.10,322.40 -432.79,302.77"/>