<?xml version="1.0" encoding="UTF-8"?>

<!-- generated on 2023-11-15 17:29:53 by Eclipse SUMO netedit Version 1.19.0
<configuration xmlns:xsi="http://www.w3.org/2001/XMLSchema-instance" xsi:noNamespaceSchemaLocation="http://sumo.dlr.de/xsd/neteditConfiguration.xsd">

    <input>
        <additional-files value="taz.add.xml"/>
        <sumo-net-file value="basic.net.xml"/>
    </input>

    <output>
        <output-file value="basic.net.xml"/>
    </output>

    <processing>
        <geometry.min-radius.fix.railways value="false"/>
        <geometry.max-grade.fix value="false"/>
        <offset.disable-normalization value="true"/>
        <lefthand value="0"/>
    </processing>

    <junctions>
        <no-turnarounds value="true"/>
        <junctions.corner-detail value="5"/>
        <junctions.limit-turn-speed value="5.50"/>
        <rectangular-lane-cut value="0"/>
    </junctions>

    <pedestrian>
        <walkingareas value="0"/>
    </pedestrian>

    <visualisation>
        <gui-settings-file value="background/background_config.xml"/>
    </visualisation>

</configuration>
-->

<net version="1.16" junctionCornerDetail="5" limitTurnSpeed="5.50" xmlns:xsi="http://www.w3.org/2001/XMLSchema-instance" xsi:noNamespaceSchemaLocation="http://sumo.dlr.de/xsd/net_file.xsd">

    <location netOffset="0.00,0.00" convBoundary="-1387.22,-1511.96,1618.93,1632.95" origBoundary="-10000000000.00,-10000000000.00,10000000000.00,10000000000.00" projParameter="!"/>

    <edge id=":J0_0" function="internal">
        <lane id=":J0_0_0" index="0" speed="6.42" length="8.87" width="3.00" shape="315.50,838.14 314.64,835.86 313.26,834.42 311.35,833.79 308.93,834.00"/>
    </edge>
    <edge id=":J0_1" function="internal">
        <lane id=":J0_1_0" index="0" speed="11.11" length="14.01" width="3.00" shape="315.50,838.14 312.37,824.48"/>
    </edge>
    <edge id=":J0_2" function="internal">
        <lane id=":J0_2_0" index="0" speed="7.88" length="13.72" width="3.00" shape="315.50,838.14 315.20,834.39 316.17,831.43 318.40,829.28 321.90,827.93"/>
    </edge>
    <edge id=":J0_3" function="internal">
        <lane id=":J0_3_0" index="0" speed="6.46" length="8.91" width="3.00" shape="322.58,830.85 320.31,831.73 318.86,833.13 318.23,835.04 318.43,837.48"/>
    </edge>
    <edge id=":J0_4" function="internal">
        <lane id=":J0_4_0" index="0" speed="11.11" length="14.01" width="3.00" shape="322.58,830.85 308.93,834.00"/>
    </edge>
    <edge id=":J0_5" function="internal">
        <lane id=":J0_5_0" index="0" speed="7.87" length="3.75" width="3.00" shape="322.58,830.85 318.84,831.17"/>
    </edge>
    <edge id=":J0_12" function="internal">
        <lane id=":J0_12_0" index="0" speed="7.87" length="9.96" width="3.00" shape="318.84,831.17 315.89,830.21 313.74,827.98 312.37,824.48"/>
    </edge>
    <edge id=":J0_6" function="internal">
        <lane id=":J0_6_0" index="0" speed="6.45" length="8.89" width="3.00" shape="315.29,823.79 316.18,826.07 317.57,827.51 319.48,828.13 321.90,827.93"/>
    </edge>
    <edge id=":J0_7" function="internal">
        <lane id=":J0_7_0" index="0" speed="11.11" length="14.04" width="3.00" shape="315.29,823.79 318.43,837.48"/>
    </edge>
    <edge id=":J0_8" function="internal">
        <lane id=":J0_8_0" index="0" speed="7.85" length="13.73" width="3.00" shape="315.29,823.79 315.62,827.54 314.67,830.49 312.44,832.64 308.93,834.00"/>
    </edge>
    <edge id=":J0_9" function="internal">
        <lane id=":J0_9_0" index="0" speed="6.43" length="8.88" width="3.00" shape="308.25,831.08 310.53,830.20 311.97,828.81 312.58,826.90 312.37,824.48"/>
    </edge>
    <edge id=":J0_10" function="internal">
        <lane id=":J0_10_0" index="0" speed="11.11" length="14.01" width="3.00" shape="308.25,831.08 321.90,827.93"/>
    </edge>
    <edge id=":J0_11" function="internal">
        <lane id=":J0_11_0" index="0" speed="7.84" length="3.77" width="3.00" shape="308.25,831.08 312.01,830.76"/>
    </edge>
    <edge id=":J0_13" function="internal">
        <lane id=":J0_13_0" index="0" speed="7.84" length="9.97" width="3.00" shape="312.01,830.76 314.95,831.72 317.09,833.96 318.43,837.48"/>
    </edge>
    <edge id=":J1_0" function="internal">
        <lane id=":J1_0_0" index="0" speed="6.40" length="8.87" width="3.00" shape="752.22,733.76 751.33,731.49 749.93,730.06 748.02,729.47 745.60,729.72"/>
    </edge>
    <edge id=":J1_1" function="internal">
        <lane id=":J1_1_0" index="0" speed="7.88" length="13.74" width="3.00" shape="752.22,733.76 751.88,730.00 752.82,727.03 755.03,724.86 758.52,723.48"/>
    </edge>
    <edge id=":J1_2" function="internal">
        <lane id=":J1_2_0" index="0" speed="6.46" length="8.91" width="3.00" shape="759.22,726.39 756.96,727.29 755.53,728.70 754.92,730.63 755.14,733.07"/>
    </edge>
    <edge id=":J1_3" function="internal">
        <lane id=":J1_3_0" index="0" speed="11.11" length="14.02" width="3.00" shape="759.22,726.39 745.60,729.72"/>
    </edge>
    <edge id=":J1_4" function="internal">
        <lane id=":J1_4_0" index="0" speed="11.11" length="14.05" width="3.00" shape="744.87,726.81 758.52,723.48"/>
    </edge>
    <edge id=":J1_5" function="internal">
        <lane id=":J1_5_0" index="0" speed="7.83" length="3.78" width="3.00" shape="744.87,726.81 748.63,726.42"/>
    </edge>
    <edge id=":J1_6" function="internal">
        <lane id=":J1_6_0" index="0" speed="7.83" length="9.98" width="3.00" shape="748.63,726.42 751.60,727.34 753.77,729.55 755.14,733.07"/>
    </edge>
    <edge id=":J102_0" function="internal">
        <lane id=":J102_0_0" index="0" speed="20.84" length="28.70" width="3.75" shape="-686.19,-999.28 -695.97,-999.42 -703.95,-998.69 -710.17,-997.68 -714.72,-996.97"/>
    </edge>
    <edge id=":J102_1" function="internal">
        <lane id=":J102_1_0" index="0" speed="25.00" length="28.69" width="3.75" shape="-686.19,-999.28 -714.81,-1001.38"/>
        <lane id=":J102_1_1" index="1" speed="25.00" length="28.69" width="3.75" shape="-685.93,-1003.02 -714.54,-1005.12"/>
        <lane id=":J102_1_2" index="2" speed="25.00" length="28.69" width="3.75" shape="-685.66,-1006.76 -714.26,-1008.86"/>
    </edge>
    <edge id=":J103_0" function="internal">
        <lane id=":J103_0_0" index="0" speed="16.67" length="19.39" width="3.75" shape="-816.36,-848.38 -816.58,-844.55 -816.85,-840.32 -816.54,-835.33 -815.02,-829.20"/>
    </edge>
    <edge id=":J103_1" function="internal">
        <lane id=":J103_1_0" index="0" speed="16.67" length="19.42" width="3.75" shape="-821.29,-847.57 -815.02,-829.20"/>
        <lane id=":J103_1_1" index="1" speed="16.67" length="19.42" width="3.75" shape="-824.83,-846.36 -818.56,-827.98"/>
        <lane id=":J103_1_2" index="2" speed="16.67" length="19.42" width="3.75" shape="-828.38,-845.15 -822.11,-826.76"/>
    </edge>
    <edge id=":J104_0" function="internal">
        <lane id=":J104_0_0" index="0" speed="17.48" length="15.76" width="3.75" shape="-934.28,-1017.23 -939.22,-1017.10 -942.91,-1016.09 -945.98,-1014.56 -949.08,-1012.82"/>
    </edge>
    <edge id=":J104_1" function="internal">
        <lane id=":J104_1_0" index="0" speed="25.00" length="15.84" width="3.75" shape="-934.28,-1017.23 -950.09,-1018.48"/>
        <lane id=":J104_1_1" index="1" speed="25.00" length="15.84" width="3.75" shape="-934.02,-1020.97 -949.80,-1022.22"/>
        <lane id=":J104_1_2" index="2" speed="25.00" length="15.84" width="3.75" shape="-933.75,-1024.72 -949.52,-1025.96"/>
    </edge>
    <edge id=":J105_0" function="internal">
        <lane id=":J105_0_0" index="0" speed="16.67" length="15.75" width="3.75" shape="-875.02,-942.92 -880.10,-957.81"/>
        <lane id=":J105_0_1" index="1" speed="16.67" length="15.75" width="3.75" shape="-871.48,-944.13 -876.55,-959.04"/>
        <lane id=":J105_0_2" index="2" speed="16.67" length="15.75" width="3.75" shape="-867.93,-945.35 -873.01,-960.27"/>
    </edge>
    <edge id=":J105_3" function="internal">
        <lane id=":J105_3_0" index="0" speed="16.67" length="15.62" width="3.75" shape="-880.78,-942.52 -879.87,-945.96 -879.10,-949.29 -878.99,-953.06 -880.10,-957.81"/>
    </edge>
    <edge id=":J106_0" function="internal">
        <lane id=":J106_0_0" index="0" speed="16.67" length="16.11" width="3.75" shape="-851.53,-936.19 -849.40,-931.59 -846.96,-928.51 -844.28,-926.22 -841.44,-924.03"/>
    </edge>
    <edge id=":J106_1" function="internal">
        <lane id=":J106_1_0" index="0" speed="16.67" length="16.16" width="3.75" shape="-851.53,-936.19 -846.36,-920.86"/>
        <lane id=":J106_1_1" index="1" speed="16.67" length="16.16" width="3.75" shape="-855.07,-934.96 -849.91,-919.65"/>
        <lane id=":J106_1_2" index="2" speed="16.67" length="16.16" width="3.75" shape="-858.61,-933.72 -853.46,-918.43"/>
    </edge>
    <edge id=":J107_0" function="internal">
        <lane id=":J107_0_0" index="0" speed="20.84" length="17.08" width="3.75" shape="-827.80,-1004.34 -830.92,-1006.23 -834.12,-1008.13 -838.07,-1009.72 -843.44,-1010.64"/>
    </edge>
    <edge id=":J107_1" function="internal">
        <lane id=":J107_1_0" index="0" speed="25.00" length="17.14" width="3.75" shape="-826.33,-1009.45 -843.44,-1010.64"/>
        <lane id=":J107_1_1" index="1" speed="25.00" length="17.14" width="3.75" shape="-826.06,-1013.19 -843.15,-1014.38"/>
        <lane id=":J107_1_2" index="2" speed="25.00" length="17.14" width="3.75" shape="-825.79,-1016.93 -842.87,-1018.12"/>
    </edge>
    <edge id=":J108_0" function="internal">
        <lane id=":J108_0_0" index="0" speed="20.84" length="17.15" width="3.75" shape="-855.11,-1031.64 -849.64,-1031.77 -845.48,-1032.79 -842.04,-1034.27 -838.72,-1035.81"/>
    </edge>
    <edge id=":J108_1" function="internal">
        <lane id=":J108_1_0" index="0" speed="25.00" length="17.27" width="3.75" shape="-855.11,-1031.64 -837.88,-1030.40"/>
        <lane id=":J108_1_1" index="1" speed="25.00" length="17.27" width="3.75" shape="-855.37,-1027.90 -838.15,-1026.66"/>
        <lane id=":J108_1_2" index="2" speed="25.00" length="17.27" width="3.75" shape="-855.63,-1024.16 -838.41,-1022.92"/>
    </edge>
    <edge id=":J109_0" function="internal">
        <lane id=":J109_0_0" index="0" speed="16.67" length="17.97" width="3.75" shape="-906.96,-1103.73 -907.60,-1100.06 -907.87,-1096.17 -907.39,-1091.64 -905.74,-1086.09"/>
    </edge>
    <edge id=":J109_1" function="internal">
        <lane id=":J109_1_0" index="0" speed="16.67" length="17.95" width="3.75" shape="-912.41,-1102.79 -905.74,-1086.09"/>
        <lane id=":J109_1_1" index="1" speed="16.67" length="17.95" width="3.75" shape="-915.90,-1101.42 -909.24,-1084.76"/>
        <lane id=":J109_1_2" index="2" speed="16.67" length="17.95" width="3.75" shape="-919.39,-1100.06 -912.75,-1083.43"/>
    </edge>
    <edge id=":J11_0" function="internal">
        <lane id=":J11_0_0" index="0" speed="6.55" length="9.16" width="3.75" shape="899.52,997.21 898.60,994.78 897.19,993.21 895.28,992.51 892.87,992.67"/>
    </edge>
    <edge id=":J11_1" function="internal">
        <lane id=":J11_1_0" index="0" speed="6.61" length="9.11" width="3.00" shape="906.41,989.56 904.17,990.48 902.77,991.95 902.19,993.96 902.44,996.52"/>
    </edge>
    <edge id=":J11_2" function="internal">
        <lane id=":J11_2_0" index="0" speed="16.67" length="13.82" width="3.75" shape="906.41,989.56 892.87,992.67"/>
        <lane id=":J11_2_1" index="1" speed="16.67" length="13.82" width="3.75" shape="905.52,985.92 892.05,989.01"/>
        <lane id=":J11_2_2" index="2" speed="16.67" length="13.82" width="3.75" shape="904.63,982.27 891.23,985.35"/>
    </edge>
    <edge id=":J110_0" function="internal">
        <lane id=":J110_0_0" index="0" speed="16.67" length="19.94" width="3.75" shape="-950.62,-1197.04 -947.58,-1191.24 -944.55,-1187.03 -941.61,-1183.84 -938.86,-1181.12"/>
    </edge>
    <edge id=":J110_1" function="internal">
        <lane id=":J110_1_0" index="0" speed="16.67" length="19.92" width="3.75" shape="-950.62,-1197.04 -943.17,-1178.50"/>
        <lane id=":J110_1_1" index="1" speed="16.67" length="19.92" width="3.75" shape="-954.05,-1195.52 -946.63,-1177.04"/>
        <lane id=":J110_1_2" index="2" speed="16.67" length="19.92" width="3.75" shape="-957.48,-1194.01 -950.08,-1175.57"/>
    </edge>
    <edge id=":J111_0" function="internal">
        <lane id=":J111_0_0" index="0" speed="16.67" length="19.14" width="3.75" shape="-967.51,-1171.16 -967.12,-1174.98 -966.94,-1179.17 -967.56,-1184.04 -969.53,-1189.92"/>
    </edge>
    <edge id=":J111_1" function="internal">
        <lane id=":J111_1_0" index="0" speed="16.67" length="19.14" width="3.75" shape="-962.27,-1172.26 -969.53,-1189.92"/>
        <lane id=":J111_1_1" index="1" speed="16.67" length="19.14" width="3.75" shape="-958.82,-1173.73 -966.10,-1191.43"/>
        <lane id=":J111_1_2" index="2" speed="16.67" length="19.14" width="3.75" shape="-955.37,-1175.19 -962.67,-1192.94"/>
    </edge>
    <edge id=":J112_0" function="internal">
        <lane id=":J112_0_0" index="0" speed="16.41" length="17.98" width="3.75" shape="-932.43,-1099.30 -934.99,-1104.45 -937.86,-1107.97 -940.92,-1110.46 -944.07,-1112.49"/>
    </edge>
    <edge id=":J112_1" function="internal">
        <lane id=":J112_1_0" index="0" speed="16.67" length="17.91" width="3.75" shape="-932.43,-1099.30 -939.01,-1115.95"/>
        <lane id=":J112_1_1" index="1" speed="16.67" length="17.91" width="3.75" shape="-928.93,-1100.66 -935.52,-1117.32"/>
        <lane id=":J112_1_2" index="2" speed="16.67" length="17.91" width="3.75" shape="-925.43,-1102.02 -932.02,-1118.69"/>
    </edge>
    <edge id=":J113_0" function="internal">
        <lane id=":J113_0_0" index="0" speed="20.84" length="22.07" width="3.75" shape="-968.50,-1045.22 -964.99,-1043.14 -960.64,-1041.01 -955.06,-1039.21 -947.84,-1038.14"/>
    </edge>
    <edge id=":J113_1" function="internal">
        <lane id=":J113_1_0" index="0" speed="25.00" length="22.06" width="3.75" shape="-969.81,-1039.94 -947.84,-1038.14"/>
        <lane id=":J113_1_1" index="1" speed="25.00" length="22.06" width="3.75" shape="-970.10,-1036.21 -948.11,-1034.40"/>
        <lane id=":J113_1_2" index="2" speed="25.00" length="22.06" width="3.75" shape="-970.38,-1032.47 -948.37,-1030.66"/>
    </edge>
    <edge id=":J114_0" function="internal">
        <lane id=":J114_0_0" index="0" speed="20.84" length="24.24" width="3.75" shape="-726.07,-1027.14 -722.15,-1025.54 -717.19,-1023.62 -710.86,-1021.87 -702.82,-1020.75"/>
    </edge>
    <edge id=":J114_1" function="internal">
        <lane id=":J114_1_0" index="0" speed="25.00" length="24.34" width="3.75" shape="-727.09,-1022.48 -702.82,-1020.75"/>
        <lane id=":J114_1_1" index="1" speed="25.00" length="24.34" width="3.75" shape="-727.36,-1018.74 -703.08,-1017.01"/>
        <lane id=":J114_1_2" index="2" speed="25.00" length="24.34" width="3.75" shape="-727.63,-1015.00 -703.35,-1013.27"/>
    </edge>
    <edge id=":J115_0" function="internal">
        <lane id=":J115_0_0" index="0" speed="17.61" length="23.53" width="3.75" shape="-1063.21,-1047.03 -1055.38,-1046.91 -1049.06,-1047.74 -1044.14,-1049.27 -1040.48,-1051.26"/>
    </edge>
    <edge id=":J115_1" function="internal">
        <lane id=":J115_1_0" index="0" speed="25.00" length="23.62" width="3.75" shape="-1063.21,-1047.03 -1039.67,-1045.28"/>
        <lane id=":J115_1_1" index="1" speed="25.00" length="23.62" width="3.75" shape="-1063.51,-1043.29 -1039.96,-1041.54"/>
        <lane id=":J115_1_2" index="2" speed="25.00" length="23.62" width="3.75" shape="-1063.80,-1039.56 -1040.24,-1037.80"/>
    </edge>
    <edge id=":J116_0" function="internal">
        <lane id=":J116_0_0" index="0" speed="16.67" length="21.57" width="3.75" shape="-838.64,-836.82 -841.46,-843.38 -844.48,-848.22 -847.38,-851.94 -849.84,-855.11"/>
    </edge>
    <edge id=":J116_1" function="internal">
        <lane id=":J116_1_0" index="0" speed="16.67" length="21.65" width="3.75" shape="-838.64,-836.82 -845.66,-857.30"/>
        <lane id=":J116_1_1" index="1" speed="16.67" length="21.65" width="3.75" shape="-835.09,-838.03 -842.12,-858.52"/>
        <lane id=":J116_1_2" index="2" speed="16.67" length="21.65" width="3.75" shape="-831.55,-839.25 -838.57,-859.73"/>
    </edge>
    <edge id=":J117_0" function="internal">
        <lane id=":J117_0_0" index="0" speed="20.84" length="24.86" width="3.75" shape="-1014.46,-1018.38 -1018.37,-1020.16 -1023.44,-1022.18 -1029.95,-1024.01 -1038.21,-1025.19"/>
    </edge>
    <edge id=":J117_1" function="internal">
        <lane id=":J117_1_0" index="0" speed="25.00" length="24.83" width="3.75" shape="-1013.45,-1023.30 -1038.21,-1025.19"/>
        <lane id=":J117_1_1" index="1" speed="25.00" length="24.83" width="3.75" shape="-1013.17,-1027.04 -1037.93,-1028.93"/>
        <lane id=":J117_1_2" index="2" speed="25.00" length="24.83" width="3.75" shape="-1012.88,-1030.78 -1037.65,-1032.66"/>
    </edge>
    <edge id=":J118_0" function="internal">
        <lane id=":J118_0_0" index="0" speed="6.24" length="8.87" width="3.00" shape="24.12,79.95 23.17,77.68 21.74,76.33 19.81,75.90 17.40,76.39"/>
    </edge>
    <edge id=":J118_1" function="internal">
        <lane id=":J118_1_0" index="0" speed="8.19" length="13.84" width="3.00" shape="24.12,79.95 23.65,76.11 24.39,72.98 26.36,70.54 29.53,68.79"/>
    </edge>
    <edge id=":J118_2" function="internal">
        <lane id=":J118_2_0" index="0" speed="6.83" length="9.35" width="3.00" shape="30.57,71.61 28.46,72.78 27.17,74.43 26.69,76.57 27.03,79.19"/>
    </edge>
    <edge id=":J118_3" function="internal">
        <lane id=":J118_3_0" index="0" speed="11.11" length="14.01" width="3.00" shape="30.57,71.61 17.40,76.39"/>
    </edge>
    <edge id=":J118_4" function="internal">
        <lane id=":J118_4_0" index="0" speed="11.11" length="13.99" width="3.00" shape="16.39,73.56 29.53,68.79"/>
    </edge>
    <edge id=":J118_5" function="internal">
        <lane id=":J118_5_0" index="0" speed="7.70" length="3.89" width="3.00" shape="16.39,73.56 20.20,72.79"/>
    </edge>
    <edge id=":J118_6" function="internal">
        <lane id=":J118_6_0" index="0" speed="7.70" length="10.14" width="3.00" shape="20.20,72.79 23.25,73.47 25.52,75.60 27.03,79.19"/>
    </edge>
    <edge id=":J122_0" function="internal">
        <lane id=":J122_0_0" index="0" speed="6.43" length="8.87" width="3.00" shape="-567.60,-904.47 -567.95,-906.88 -568.98,-908.59 -570.69,-909.63 -573.10,-909.97"/>
    </edge>
    <edge id=":J122_1" function="internal">
        <lane id=":J122_1_0" index="0" speed="11.11" length="14.00" width="3.00" shape="-567.60,-904.47 -567.60,-918.47"/>
    </edge>
    <edge id=":J122_2" function="internal">
        <lane id=":J122_2_0" index="0" speed="11.11" length="14.00" width="3.00" shape="-564.60,-918.47 -564.60,-904.47"/>
    </edge>
    <edge id=":J122_3" function="internal">
        <lane id=":J122_3_0" index="0" speed="7.86" length="3.76" width="3.00" shape="-564.60,-918.47 -565.13,-914.75"/>
    </edge>
    <edge id=":J122_6" function="internal">
        <lane id=":J122_6_0" index="0" speed="7.86" length="9.95" width="3.00" shape="-565.13,-914.75 -566.72,-912.09 -569.38,-910.50 -573.10,-909.97"/>
    </edge>
    <edge id=":J122_4" function="internal">
        <lane id=":J122_4_0" index="0" speed="6.44" length="8.87" width="3.00" shape="-573.10,-912.97 -570.69,-913.31 -568.97,-914.34 -567.94,-916.06 -567.60,-918.47"/>
    </edge>
    <edge id=":J122_5" function="internal">
        <lane id=":J122_5_0" index="0" speed="7.86" length="13.71" width="3.00" shape="-573.10,-912.97 -569.38,-912.44 -566.73,-910.84 -565.13,-908.19 -564.60,-904.47"/>
    </edge>
    <edge id=":J124_0" function="internal">
        <lane id=":J124_0_0" index="0" speed="16.67" length="8.28" width="3.75" shape="442.73,1099.36 434.90,1101.07"/>
        <lane id=":J124_0_1" index="1" speed="16.67" length="8.28" width="3.75" shape="441.88,1095.71 434.06,1097.41"/>
        <lane id=":J124_0_2" index="2" speed="16.67" length="8.28" width="3.75" shape="441.03,1092.06 433.22,1093.76"/>
        <lane id=":J124_0_3" index="3" speed="16.67" length="8.28" width="3.75" shape="441.03,1092.06 438.47,1092.03 436.71,1091.08 434.95,1090.13 432.38,1090.11"/>
    </edge>
    <edge id=":J125_0" function="internal">
        <lane id=":J125_0_0" index="0" speed="16.67" length="8.25" width="3.75" shape="-12.75,1221.14 -20.35,1223.62"/>
        <lane id=":J125_0_1" index="1" speed="16.67" length="8.25" width="3.75" shape="-13.84,1217.55 -21.44,1220.04"/>
        <lane id=":J125_0_2" index="2" speed="16.67" length="8.25" width="3.75" shape="-14.93,1213.97 -22.54,1216.45"/>
        <lane id=":J125_0_3" index="3" speed="16.67" length="8.25" width="3.75" shape="-14.93,1213.97 -17.47,1214.15 -19.28,1213.41 -21.09,1212.68 -23.63,1212.86"/>
    </edge>
    <edge id=":J126_0" function="internal">
        <lane id=":J126_0_0" index="0" speed="16.67" length="8.29" width="3.75" shape="882.73,994.94 874.96,996.60"/>
        <lane id=":J126_0_1" index="1" speed="16.67" length="8.29" width="3.75" shape="881.91,991.28 874.10,992.95"/>
        <lane id=":J126_0_2" index="2" speed="16.67" length="8.29" width="3.75" shape="881.09,987.62 873.25,989.30"/>
        <lane id=":J126_0_3" index="3" speed="16.67" length="8.29" width="3.75" shape="881.09,987.62 878.51,987.58 876.74,986.62 874.97,985.67 872.39,985.65"/>
    </edge>
    <edge id=":J127_0" function="internal">
        <lane id=":J127_0_0" index="0" speed="16.67" length="8.27" width="3.75" shape="-80.78,1309.73 -83.09,1302.06"/>
        <lane id=":J127_0_1" index="1" speed="16.67" length="8.27" width="3.75" shape="-77.19,1308.64 -79.50,1300.98"/>
        <lane id=":J127_0_2" index="2" speed="16.67" length="8.27" width="3.75" shape="-73.60,1307.56 -75.91,1299.90"/>
        <lane id=":J127_0_3" index="3" speed="16.67" length="8.27" width="3.75" shape="-73.60,1307.56 -73.76,1305.01 -72.96,1303.19 -72.16,1301.38 -72.32,1298.82"/>
    </edge>
    <edge id=":J128_0" function="internal">
        <lane id=":J128_0_0" index="0" speed="16.67" length="8.26" width="3.75" shape="-104.16,1155.71 -101.46,1163.28"/>
        <lane id=":J128_0_1" index="1" speed="16.67" length="8.26" width="3.75" shape="-107.70,1156.96 -105.00,1164.49"/>
        <lane id=":J128_0_2" index="2" speed="16.67" length="8.26" width="3.75" shape="-111.24,1158.20 -108.55,1165.71"/>
        <lane id=":J128_0_3" index="3" speed="16.67" length="8.26" width="3.75" shape="-111.24,1158.20 -110.95,1160.73 -111.65,1162.56 -112.36,1164.40 -112.10,1166.93"/>
    </edge>
    <edge id=":J129_0" function="internal">
        <lane id=":J129_0_0" index="0" speed="16.67" length="8.27" width="3.75" shape="-262.14,786.93 -264.80,779.37"/>
        <lane id=":J129_0_1" index="1" speed="16.67" length="8.27" width="3.75" shape="-258.61,785.67 -261.27,778.12"/>
        <lane id=":J129_0_2" index="2" speed="16.67" length="8.27" width="3.75" shape="-255.08,784.40 -257.73,776.87"/>
        <lane id=":J129_0_3" index="3" speed="16.67" length="8.27" width="3.75" shape="-255.08,784.40 -255.36,781.86 -254.64,780.01 -253.92,778.16 -254.19,775.62"/>
    </edge>
    <edge id=":J13_0" function="internal">
        <lane id=":J13_0_0" index="0" speed="6.29" length="9.20" width="3.75" shape="1285.03,861.61 1285.75,864.15 1287.06,865.75 1288.95,866.41 1291.43,866.14"/>
    </edge>
    <edge id=":J13_1" function="internal">
        <lane id=":J13_1_0" index="0" speed="7.07" length="9.76" width="3.00" shape="1277.84,869.73 1280.03,868.75 1281.46,867.14 1282.14,864.90 1282.06,862.03"/>
    </edge>
    <edge id=":J13_2" function="internal">
        <lane id=":J13_2_0" index="0" speed="16.67" length="14.09" width="3.75" shape="1277.84,869.73 1291.43,866.14"/>
        <lane id=":J13_2_1" index="1" speed="16.67" length="14.09" width="3.75" shape="1278.78,873.36 1292.40,869.76"/>
        <lane id=":J13_2_2" index="2" speed="16.67" length="14.09" width="3.75" shape="1279.72,876.99 1293.37,873.38"/>
    </edge>
    <edge id=":J15_0" function="internal">
        <lane id=":J15_0_0" index="0" speed="16.67" length="14.12" width="3.75" shape="825.47,1008.21 811.74,1011.33"/>
        <lane id=":J15_0_1" index="1" speed="16.67" length="14.12" width="3.75" shape="824.62,1004.56 810.85,1007.69"/>
        <lane id=":J15_0_2" index="2" speed="16.67" length="14.12" width="3.75" shape="823.76,1000.91 809.96,1004.04"/>
    </edge>
    <edge id=":J15_3" function="internal">
        <lane id=":J15_3_0" index="0" speed="10.01" length="22.62" width="3.00" shape="822.90,997.26 819.02,996.97 815.63,994.15 812.73,988.80 810.34,980.93"/>
    </edge>
    <edge id=":J15_4" function="internal">
        <lane id=":J15_4_0" index="0" speed="4.48" length="7.83" width="3.75" shape="822.90,997.26 820.64,996.42 819.68,995.27 820.03,993.81 821.68,992.04"/>
    </edge>
    <edge id=":J15_5" function="internal">
        <lane id=":J15_5_0" index="0" speed="6.54" length="9.21" width="3.75" shape="813.26,980.24 814.18,982.68 815.61,984.25 817.54,984.93 819.96,984.74"/>
    </edge>
    <edge id=":J15_6" function="internal">
        <lane id=":J15_6_0" index="0" speed="10.68" length="26.03" width="3.75" shape="813.26,980.24 814.97,989.89 814.99,997.07 813.32,1001.79 809.96,1004.04"/>
    </edge>
    <edge id=":J15_7" function="internal">
        <lane id=":J15_7_0" index="0" speed="6.70" length="9.41" width="3.00" shape="806.05,988.00 808.43,987.05 809.94,985.55 810.57,983.51 810.34,980.93"/>
    </edge>
    <edge id=":J15_8" function="internal">
        <lane id=":J15_8_0" index="0" speed="16.67" length="14.25" width="3.75" shape="806.05,988.00 819.96,984.74"/>
        <lane id=":J15_8_1" index="1" speed="16.67" length="14.25" width="3.75" shape="806.94,991.64 820.82,988.39"/>
        <lane id=":J15_8_2" index="2" speed="16.67" length="14.25" width="3.75" shape="807.83,995.28 821.68,992.04"/>
    </edge>
    <edge id=":J16_0" function="internal">
        <lane id=":J16_0_0" index="0" speed="7.44" length="12.36" width="3.75" shape="-97.75,1253.28 -99.29,1249.46 -101.19,1247.02 -103.45,1245.95 -106.08,1246.25"/>
    </edge>
    <edge id=":J16_1" function="internal">
        <lane id=":J16_1_0" index="0" speed="16.67" length="35.97" width="3.75" shape="-97.75,1253.28 -108.82,1219.23"/>
        <lane id=":J16_1_1" index="1" speed="16.67" length="35.97" width="3.75" shape="-94.16,1252.20 -105.28,1217.99"/>
        <lane id=":J16_1_2" index="2" speed="16.67" length="35.97" width="3.75" shape="-90.57,1251.11 -101.74,1216.74"/>
    </edge>
    <edge id=":J16_4" function="internal">
        <lane id=":J16_4_0" index="0" speed="13.27" length="22.29" width="3.75" shape="-90.57,1251.11 -92.56,1239.42 -90.80,1230.10 -90.21,1229.36"/>
        <lane id=":J16_4_1" index="1" speed="12.27" length="14.53" width="3.75" shape="-86.98,1250.03 -88.72,1239.98 -87.96,1235.72"/>
    </edge>
    <edge id=":J16_6" function="internal">
        <lane id=":J16_6_0" index="0" speed="4.76" length="5.21" width="3.75" shape="-86.98,1250.03 -86.16,1247.33 -84.89,1246.13 -84.25,1246.24"/>
    </edge>
    <edge id=":J16_28" function="internal">
        <lane id=":J16_28_0" index="0" speed="13.27" length="18.26" width="3.75" shape="-90.21,1229.36 -85.28,1223.16 -76.01,1218.58"/>
    </edge>
    <edge id=":J16_29" function="internal">
        <lane id=":J16_29_0" index="0" speed="12.27" length="20.00" width="3.75" shape="-87.96,1235.72 -87.30,1231.98 -82.70,1226.04 -74.92,1222.17"/>
    </edge>
    <edge id=":J16_30" function="internal">
        <lane id=":J16_30_0" index="0" speed="4.76" length="3.93" width="3.75" shape="-84.25,1246.24 -83.16,1246.43 -80.99,1248.22"/>
    </edge>
    <edge id=":J16_7" function="internal">
        <lane id=":J16_7_0" index="0" speed="6.71" length="9.47" width="3.75" shape="-69.89,1238.73 -72.24,1239.83 -73.68,1241.42 -74.20,1243.49 -73.81,1246.06"/>
        <lane id=":J16_7_1" index="1" speed="8.40" length="15.51" width="3.75" shape="-70.98,1235.14 -74.83,1236.94 -77.18,1239.54 -78.04,1242.94 -77.40,1247.14"/>
    </edge>
    <edge id=":J16_9" function="internal">
        <lane id=":J16_9_0" index="0" speed="16.67" length="36.90" width="3.75" shape="-70.98,1235.14 -106.08,1246.25"/>
        <lane id=":J16_9_1" index="1" speed="16.67" length="36.90" width="3.75" shape="-72.07,1231.55 -107.33,1242.72"/>
    </edge>
    <edge id=":J16_11" function="internal">
        <lane id=":J16_11_0" index="0" speed="12.96" length="37.45" width="3.75" shape="-72.07,1231.55 -80.45,1231.64 -90.81,1228.72 -100.11,1223.83 -105.28,1217.99"/>
        <lane id=":J16_11_1" index="1" speed="12.09" length="32.44" width="3.75" shape="-73.16,1227.96 -80.83,1228.40 -89.61,1226.26 -97.31,1222.16 -101.74,1216.74"/>
    </edge>
    <edge id=":J16_13" function="internal">
        <lane id=":J16_13_0" index="0" speed="4.70" length="8.85" width="3.75" shape="-73.16,1227.96 -75.78,1227.18 -76.94,1225.95 -76.66,1224.28 -74.92,1222.17"/>
    </edge>
    <edge id=":J16_14" function="internal">
        <lane id=":J16_14_0" index="0" speed="7.01" length="10.19" width="3.75" shape="-85.11,1210.88 -83.85,1213.36 -82.09,1214.87 -79.85,1215.42 -77.11,1214.99"/>
    </edge>
    <edge id=":J16_15" function="internal">
        <lane id=":J16_15_0" index="0" speed="16.67" length="36.78" width="3.75" shape="-85.11,1210.88 -73.81,1246.06"/>
        <lane id=":J16_15_1" index="1" speed="16.67" length="36.78" width="3.75" shape="-88.65,1212.13 -77.40,1247.14"/>
        <lane id=":J16_15_2" index="2" speed="16.67" length="36.78" width="3.75" shape="-92.19,1213.37 -80.99,1248.22"/>
    </edge>
    <edge id=":J16_18" function="internal">
        <lane id=":J16_18_0" index="0" speed="12.30" length="15.43" width="3.75" shape="-95.72,1214.62 -93.69,1224.41 -94.54,1229.77"/>
    </edge>
    <edge id=":J16_19" function="internal">
        <lane id=":J16_19_0" index="0" speed="4.80" length="5.49" width="3.75" shape="-95.72,1214.62 -96.43,1217.41 -97.67,1218.69 -98.49,1218.59"/>
    </edge>