<?xml version="1.0" encoding="UTF-8"?>

<!-- generated on 2023-11-14 18:23:43 by Eclipse SUMO netedit Version 1.19.0
<configuration xmlns:xsi="http://www.w3.org/2001/XMLSchema-instance" xsi:noNamespaceSchemaLocation="http://sumo.dlr.de/xsd/neteditConfiguration.xsd">

    <input>
        <additional-files value="taz.add.xml"/>
        <sumo-net-file value="basic.net.xml"/>
    </input>

    <output>
        <output-file value="basic.net.xml"/>
    </output>

    <processing>
        <geometry.min-radius.fix.railways value="false"/>
        <geometry.max-grade.fix value="false"/>
        <offset.disable-normalization value="true"/>
        <lefthand value="0"/>
    </processing>

    <junctions>
        <no-internal-links value="false"/>
        <no-turnarounds value="true"/>
        <junctions.corner-detail value="5"/>
        <junctions.limit-turn-speed value="5.50"/>
        <rectangular-lane-cut value="0"/>
    </junctions>

    <pedestrian>
        <walkingareas value="0"/>
    </pedestrian>

    <visualisation>
        <gui-settings-file value="background/background_config.xml"/>
    </visualisation>

</configuration>
-->

<net version="1.16" junctionCornerDetail="5" limitTurnSpeed="5.50" xmlns:xsi="http://www.w3.org/2001/XMLSchema-instance" xsi:noNamespaceSchemaLocation="http://sumo.dlr.de/xsd/net_file.xsd">

    <location netOffset="0.00,0.00" convBoundary="-1387.22,-1511.96,1618.93,1632.95" origBoundary="-10000000000.00,-10000000000.00,10000000000.00,10000000000.00" projParameter="!"/>

    <edge id=":J0_0" function="internal">
        <lane id=":J0_0_0" index="0" speed="6.49" length="9.03" shape="315.45,838.36 314.57,836.04 313.16,834.57 311.22,833.93 308.75,834.14"/>
    </edge>
    <edge id=":J0_1" function="internal">
        <lane id=":J0_1_0" index="0" speed="11.11" length="14.42" shape="315.45,838.36 312.23,824.30"/>
    </edge>
    <edge id=":J0_2" function="internal">
        <lane id=":J0_2_0" index="0" speed="8.02" length="14.21" shape="315.45,838.36 315.14,834.47 316.14,831.41 318.45,829.19 322.08,827.79"/>
    </edge>
    <edge id=":J0_3" function="internal">
        <lane id=":J0_3_0" index="0" speed="6.53" length="9.07" shape="322.79,830.91 320.48,831.80 319.01,833.22 318.37,835.17 318.57,837.66"/>
    </edge>
    <edge id=":J0_4" function="internal">
        <lane id=":J0_4_0" index="0" speed="11.11" length="14.41" shape="322.79,830.91 308.75,834.14"/>
    </edge>
    <edge id=":J0_5" function="internal">
        <lane id=":J0_5_0" index="0" speed="8.01" length="4.06" shape="322.79,830.91 318.92,831.23 318.76,831.18"/>
    </edge>
    <edge id=":J0_12" function="internal">
        <lane id=":J0_12_0" index="0" speed="8.01" length="10.14" shape="318.76,831.18 315.87,830.24 313.64,827.93 312.23,824.30"/>
    </edge>
    <edge id=":J0_6" function="internal">
        <lane id=":J0_6_0" index="0" speed="6.52" length="9.05" shape="315.34,823.57 316.24,825.89 317.67,827.36 319.61,828.00 322.08,827.79"/>
    </edge>
    <edge id=":J0_7" function="internal">
        <lane id=":J0_7_0" index="0" speed="11.11" length="14.45" shape="315.34,823.57 318.57,837.66"/>
    </edge>
    <edge id=":J0_8" function="internal">
        <lane id=":J0_8_0" index="0" speed="8.00" length="14.21" shape="315.34,823.57 315.69,827.45 314.70,830.51 312.39,832.74 308.75,834.14"/>
    </edge>
    <edge id=":J0_9" function="internal">
        <lane id=":J0_9_0" index="0" speed="6.50" length="9.04" shape="308.03,831.03 310.35,830.13 311.82,828.71 312.44,826.77 312.23,824.30"/>
    </edge>
    <edge id=":J0_10" function="internal">
        <lane id=":J0_10_0" index="0" speed="11.11" length="14.41" shape="308.03,831.03 322.08,827.79"/>
    </edge>
    <edge id=":J0_11" function="internal">
        <lane id=":J0_11_0" index="0" speed="7.99" length="4.07" shape="308.03,831.03 311.92,830.70 312.08,830.75"/>
    </edge>
    <edge id=":J0_13" function="internal">
        <lane id=":J0_13_0" index="0" speed="7.99" length="10.14" shape="312.08,830.75 314.97,831.69 317.19,834.01 318.57,837.66"/>
    </edge>
    <edge id=":J1_0" function="internal">
        <lane id=":J1_0_0" index="0" speed="6.48" length="9.03" shape="752.18,733.98 751.27,731.67 749.84,730.21 747.90,729.61 745.43,729.87"/>
    </edge>
    <edge id=":J1_1" function="internal">
        <lane id=":J1_1_0" index="0" speed="8.02" length="14.22" shape="752.18,733.98 751.82,730.09 752.79,727.01 755.08,724.76 758.69,723.33"/>
    </edge>
    <edge id=":J1_2" function="internal">
        <lane id=":J1_2_0" index="0" speed="6.53" length="9.07" shape="759.43,726.44 757.14,727.36 755.68,728.79 755.06,730.76 755.29,733.24"/>
    </edge>
    <edge id=":J1_3" function="internal">
        <lane id=":J1_3_0" index="0" speed="11.11" length="14.42" shape="759.43,726.44 745.43,729.87"/>
    </edge>
    <edge id=":J1_4" function="internal">
        <lane id=":J1_4_0" index="0" speed="11.11" length="14.45" shape="744.66,726.76 758.69,723.33"/>
    </edge>
    <edge id=":J1_5" function="internal">
        <lane id=":J1_5_0" index="0" speed="7.98" length="4.11" shape="744.66,726.76 748.54,726.36 748.74,726.42"/>
    </edge>
    <edge id=":J1_6" function="internal">
        <lane id=":J1_6_0" index="0" speed="7.98" length="10.13" shape="748.74,726.42 751.61,727.31 753.86,729.60 755.29,733.24"/>
    </edge>
    <edge id=":J102_0" function="internal">
        <lane id=":J102_0_0" index="0" speed="13.89" length="25.47" shape="-680.24,-1000.23 -688.84,-1000.37 -695.78,-999.75 -701.28,-998.86 -705.56,-998.19"/>
    </edge>
    <edge id=":J102_1" function="internal">
        <lane id=":J102_1_0" index="0" speed="11.11" length="25.46" shape="-680.24,-1000.23 -705.63,-1002.09"/>
        <lane id=":J102_1_1" index="1" speed="11.11" length="25.46" shape="-680.01,-1003.42 -705.40,-1005.28"/>
        <lane id=":J102_1_2" index="2" speed="11.11" length="25.46" shape="-679.78,-1006.62 -705.17,-1008.47"/>
    </edge>
    <edge id=":J103_0" function="internal">
        <lane id=":J103_0_0" index="0" speed="16.67" length="17.63" shape="-816.61,-843.34 -816.81,-839.67 -817.03,-835.84 -816.73,-831.41 -815.34,-825.90"/>
    </edge>
    <edge id=":J103_1" function="internal">
        <lane id=":J103_1_0" index="0" speed="16.67" length="17.67" shape="-821.04,-842.62 -815.34,-825.90"/>
        <lane id=":J103_1_1" index="1" speed="16.67" length="17.67" shape="-824.07,-841.58 -818.36,-824.86"/>
        <lane id=":J103_1_2" index="2" speed="16.67" length="17.67" shape="-827.10,-840.55 -821.39,-823.82"/>
    </edge>
    <edge id=":J104_0" function="internal">
        <lane id=":J104_0_0" index="0" speed="13.89" length="14.64" shape="-932.20,-1018.46 -936.76,-1018.37 -940.13,-1017.52 -943.00,-1016.18 -946.07,-1014.63"/>
    </edge>
    <edge id=":J104_1" function="internal">
        <lane id=":J104_1_0" index="0" speed="11.11" length="14.74" shape="-932.20,-1018.46 -946.92,-1019.62"/>
        <lane id=":J104_1_1" index="1" speed="11.11" length="14.74" shape="-931.98,-1021.66 -946.68,-1022.81"/>
        <lane id=":J104_1_2" index="2" speed="11.11" length="14.74" shape="-931.75,-1024.85 -946.43,-1026.00"/>
    </edge>
    <edge id=":J105_0" function="internal">
        <lane id=":J105_0_0" index="0" speed="16.67" length="14.62" shape="-874.67,-946.13 -879.38,-959.95"/>
        <lane id=":J105_0_1" index="1" speed="16.67" length="14.62" shape="-871.65,-947.17 -876.36,-961.00"/>
        <lane id=":J105_0_2" index="2" speed="16.67" length="14.62" shape="-868.62,-948.21 -873.34,-962.05"/>
    </edge>
    <edge id=":J105_3" function="internal">
        <lane id=":J105_3_0" index="0" speed="16.67" length="14.49" shape="-879.80,-945.76 -878.97,-949.09 -878.33,-952.17 -878.32,-955.59 -879.38,-959.95"/>
    </edge>
    <edge id=":J106_0" function="internal">
        <lane id=":J106_0_0" index="0" speed="16.67" length="15.15" shape="-853.57,-937.85 -851.65,-933.51 -849.52,-930.55 -847.14,-928.31 -844.42,-926.12"/>
    </edge>
    <edge id=":J106_1" function="internal">
        <lane id=":J106_1_0" index="0" speed="16.67" length="15.19" shape="-853.57,-937.85 -848.70,-923.44"/>
        <lane id=":J106_1_1" index="1" speed="16.67" length="15.19" shape="-856.59,-936.80 -851.73,-922.41"/>
        <lane id=":J106_1_2" index="2" speed="16.67" length="15.19" shape="-859.61,-935.74 -854.75,-921.37"/>
    </edge>
    <edge id=":J107_0" function="internal">
        <lane id=":J107_0_0" index="0" speed="13.89" length="15.73" shape="-831.29,-1006.50 -834.32,-1008.30 -837.27,-1010.01 -840.84,-1011.39 -845.74,-1012.20"/>
    </edge>
    <edge id=":J107_1" function="internal">
        <lane id=":J107_1_0" index="0" speed="11.11" length="15.80" shape="-829.97,-1011.10 -845.74,-1012.20"/>
        <lane id=":J107_1_1" index="1" speed="11.11" length="15.80" shape="-829.74,-1014.29 -845.50,-1015.39"/>
        <lane id=":J107_1_2" index="2" speed="11.11" length="15.80" shape="-829.51,-1017.48 -845.25,-1018.58"/>
    </edge>
    <edge id=":J108_0" function="internal">
        <lane id=":J108_0_0" index="0" speed="13.89" length="15.49" shape="-857.38,-1030.42 -852.50,-1030.52 -848.85,-1031.39 -845.75,-1032.66 -842.50,-1033.98"/>
    </edge>
    <edge id=":J108_1" function="internal">
        <lane id=":J108_1_0" index="0" speed="11.11" length="15.60" shape="-857.38,-1030.42 -841.82,-1029.30"/>
        <lane id=":J108_1_1" index="1" speed="11.11" length="15.60" shape="-857.60,-1027.23 -842.05,-1026.11"/>
        <lane id=":J108_1_2" index="2" speed="11.11" length="15.60" shape="-857.83,-1024.04 -842.27,-1022.92"/>
    </edge>
    <edge id=":J109_0" function="internal">
        <lane id=":J109_0_0" index="0" speed="16.67" length="16.44" shape="-907.60,-1099.15 -907.75,-1095.58 -907.88,-1092.03 -907.48,-1087.99 -906.01,-1082.95"/>
    </edge>
    <edge id=":J109_1" function="internal">
        <lane id=":J109_1_0" index="0" speed="16.67" length="16.49" shape="-912.13,-1098.29 -906.01,-1082.95"/>
        <lane id=":J109_1_1" index="1" speed="16.67" length="16.49" shape="-915.11,-1097.13 -909.01,-1081.81"/>
        <lane id=":J109_1_2" index="2" speed="16.67" length="16.49" shape="-918.09,-1095.96 -912.00,-1080.67"/>
    </edge>
    <edge id=":J11_0" function="internal">
        <lane id=":J11_0_0" index="0" speed="6.54" length="9.09" shape="898.94,995.16 898.03,992.82 896.61,991.32 894.67,990.66 892.22,990.86"/>
    </edge>
    <edge id=":J11_1" function="internal">
        <lane id=":J11_1_0" index="0" speed="7.27" length="11.32" shape="908.83,986.94 905.39,988.20 903.12,989.86 902.01,991.94 902.06,994.43"/>
    </edge>
    <edge id=":J11_2" function="internal">
        <lane id=":J11_2_0" index="0" speed="16.67" length="16.96" shape="908.83,986.94 892.22,990.86"/>
        <lane id=":J11_2_1" index="1" speed="16.67" length="16.96" shape="908.02,983.85 891.51,987.74"/>
        <lane id=":J11_2_2" index="2" speed="16.67" length="16.96" shape="907.21,980.75 890.80,984.62"/>
    </edge>
    <edge id=":J110_0" function="internal">
        <lane id=":J110_0_0" index="0" speed="16.67" length="18.33" shape="-953.52,-1200.20 -950.75,-1194.91 -948.03,-1191.10 -945.42,-1188.13 -942.97,-1185.33"/>
    </edge>
    <edge id=":J110_1" function="internal">
        <lane id=":J110_1_0" index="0" speed="16.67" length="18.35" shape="-953.52,-1200.20 -946.63,-1183.14"/>
        <lane id=":J110_1_1" index="1" speed="16.67" length="18.35" shape="-956.44,-1198.91 -949.58,-1181.89"/>
        <lane id=":J110_1_2" index="2" speed="16.67" length="18.35" shape="-959.37,-1197.61 -952.53,-1180.64"/>
    </edge>
    <edge id=":J111_0" function="internal">
        <lane id=":J111_0_0" index="0" speed="16.67" length="17.46" shape="-967.18,-1175.74 -967.09,-1179.41 -967.01,-1183.22 -967.55,-1187.56 -969.33,-1192.87"/>
    </edge>
    <edge id=":J111_1" function="internal">
        <lane id=":J111_1_0" index="0" speed="16.67" length="17.51" shape="-962.67,-1176.73 -969.33,-1192.87"/>
        <lane id=":J111_1_1" index="1" speed="16.67" length="17.51" shape="-959.73,-1177.98 -966.40,-1194.16"/>
        <lane id=":J111_1_2" index="2" speed="16.67" length="17.51" shape="-956.78,-1179.23 -963.48,-1195.45"/>
    </edge>
    <edge id=":J112_0" function="internal">
        <lane id=":J112_0_0" index="0" speed="16.67" length="17.73" shape="-930.08,-1097.05 -932.52,-1102.20 -935.12,-1105.85 -937.91,-1108.50 -940.88,-1110.70"/>
    </edge>
    <edge id=":J112_1" function="internal">
        <lane id=":J112_1_0" index="0" speed="16.67" length="17.71" shape="-930.08,-1097.05 -936.57,-1113.51"/>
        <lane id=":J112_1_1" index="1" speed="16.67" length="17.71" shape="-927.09,-1098.20 -933.59,-1114.68"/>
        <lane id=":J112_1_2" index="2" speed="16.67" length="17.71" shape="-924.11,-1099.36 -930.61,-1115.84"/>
    </edge>
    <edge id=":J113_0" function="internal">
        <lane id=":J113_0_0" index="0" speed="13.89" length="20.51" shape="-963.91,-1042.47 -960.38,-1040.77 -956.28,-1038.99 -951.13,-1037.47 -944.44,-1036.53"/>
    </edge>
    <edge id=":J113_1" function="internal">
        <lane id=":J113_1_0" index="0" speed="11.11" length="20.54" shape="-964.89,-1038.19 -944.44,-1036.53"/>
        <lane id=":J113_1_1" index="1" speed="11.11" length="20.54" shape="-965.14,-1035.00 -944.67,-1033.34"/>
        <lane id=":J113_1_2" index="2" speed="11.11" length="20.54" shape="-965.38,-1031.81 -944.89,-1030.14"/>
    </edge>
    <edge id=":J114_0" function="internal">
        <lane id=":J114_0_0" index="0" speed="13.89" length="20.84" shape="-719.34,-1024.61 -715.65,-1023.23 -711.43,-1021.59 -706.15,-1020.09 -699.34,-1019.13"/>
    </edge>
    <edge id=":J114_1" function="internal">
        <lane id=":J114_1_0" index="0" speed="11.11" length="20.92" shape="-720.20,-1020.61 -699.34,-1019.13"/>
        <lane id=":J114_1_1" index="1" speed="11.11" length="20.92" shape="-720.43,-1017.42 -699.56,-1015.93"/>
        <lane id=":J114_1_2" index="2" speed="11.11" length="20.92" shape="-720.66,-1014.23 -699.79,-1012.74"/>
    </edge>
    <edge id=":J115_0" function="internal">
        <lane id=":J115_0_0" index="0" speed="13.89" length="20.80" shape="-1066.74,-1045.93 -1059.86,-1045.88 -1054.44,-1046.60 -1050.02,-1047.58 -1046.16,-1048.33"/>
    </edge>
    <edge id=":J115_1" function="internal">
        <lane id=":J115_1_0" index="0" speed="11.11" length="20.90" shape="-1066.74,-1045.93 -1045.90,-1044.37"/>
        <lane id=":J115_1_1" index="1" speed="11.11" length="20.90" shape="-1066.99,-1042.74 -1046.15,-1041.18"/>
        <lane id=":J115_1_2" index="2" speed="11.11" length="20.90" shape="-1067.24,-1039.55 -1046.39,-1037.99"/>
    </edge>
    <edge id=":J116_0" function="internal">
        <lane id=":J116_0_0" index="0" speed="16.67" length="18.18" shape="-836.29,-834.21 -838.64,-839.62 -841.16,-843.50 -843.64,-846.57 -845.87,-849.54"/>
    </edge>
    <edge id=":J116_1" function="internal">
        <lane id=":J116_1_0" index="0" speed="16.67" length="18.23" shape="-836.29,-834.21 -842.20,-851.45"/>
        <lane id=":J116_1_1" index="1" speed="16.67" length="18.23" shape="-833.26,-835.24 -839.18,-852.49"/>
        <lane id=":J116_1_2" index="2" speed="16.67" length="18.23" shape="-830.24,-836.28 -836.15,-853.52"/>
    </edge>
    <edge id=":J117_0" function="internal">
        <lane id=":J117_0_0" index="0" speed="13.89" length="22.37" shape="-1021.31,-1021.22 -1025.13,-1022.61 -1029.71,-1024.31 -1035.47,-1025.88 -1042.85,-1026.92"/>
    </edge>
    <edge id=":J117_1" function="internal">
        <lane id=":J117_1_0" index="0" speed="11.11" length="22.36" shape="-1020.55,-1025.22 -1042.85,-1026.92"/>
        <lane id=":J117_1_1" index="1" speed="11.11" length="22.36" shape="-1020.31,-1028.41 -1042.61,-1030.11"/>
        <lane id=":J117_1_2" index="2" speed="11.11" length="22.36" shape="-1020.06,-1031.60 -1042.36,-1033.30"/>
    </edge>
    <edge id=":J118_0" function="internal">
        <lane id=":J118_0_0" index="0" speed="6.32" length="9.04" shape="24.08,80.18 23.11,77.87 21.65,76.49 19.68,76.05 17.23,76.55"/>
    </edge>
    <edge id=":J118_1" function="internal">
        <lane id=":J118_1_0" index="0" speed="8.34" length="14.33" shape="24.08,80.18 23.59,76.21 24.36,72.96 26.38,70.44 29.67,68.64"/>
    </edge>
    <edge id=":J118_2" function="internal">
        <lane id=":J118_2_0" index="0" speed="6.91" length="9.53" shape="30.78,71.64 28.63,72.83 27.32,74.52 26.84,76.70 27.18,79.38"/>
    </edge>
    <edge id=":J118_3" function="internal">
        <lane id=":J118_3_0" index="0" speed="11.11" length="14.41" shape="30.78,71.64 17.23,76.55"/>
    </edge>
    <edge id=":J118_4" function="internal">
        <lane id=":J118_4_0" index="0" speed="11.11" length="14.39" shape="16.15,73.54 29.67,68.64"/>
    </edge>
    <edge id=":J118_5" function="internal">
        <lane id=":J118_5_0" index="0" speed="7.85" length="4.04" shape="16.15,73.54 20.10,72.74"/>
    </edge>
    <edge id=":J118_6" function="internal">
        <lane id=":J118_6_0" index="0" speed="7.85" length="10.51" shape="20.10,72.74 23.26,73.44 25.62,75.66 27.18,79.38"/>
    </edge>
    <edge id=":J122_0" function="internal">
        <lane id=":J122_0_0" index="0" speed="6.51" length="9.03" shape="-567.70,-904.27 -568.05,-906.72 -569.10,-908.47 -570.85,-909.52 -573.30,-909.87"/>
    </edge>
    <edge id=":J122_1" function="internal">
        <lane id=":J122_1_0" index="0" speed="11.11" length="14.40" shape="-567.70,-904.27 -567.70,-918.67"/>
    </edge>
    <edge id=":J122_2" function="internal">
        <lane id=":J122_2_0" index="0" speed="11.11" length="14.40" shape="-564.50,-918.67 -564.50,-904.27"/>
    </edge>
    <edge id=":J122_3" function="internal">
        <lane id=":J122_3_0" index="0" speed="8.00" length="4.06" shape="-564.50,-918.67 -565.05,-914.82 -565.14,-914.67"/>
    </edge>
    <edge id=":J122_6" function="internal">
        <lane id=":J122_6_0" index="0" speed="8.00" length="10.13" shape="-565.14,-914.67 -566.70,-912.07 -569.45,-910.42 -573.30,-909.87"/>
    </edge>
    <edge id=":J122_4" function="internal">
        <lane id=":J122_4_0" index="0" speed="6.51" length="9.03" shape="-573.30,-913.07 -570.85,-913.42 -569.10,-914.47 -568.05,-916.22 -567.70,-918.67"/>
    </edge>
    <edge id=":J122_5" function="internal">
        <lane id=":J122_5_0" index="0" speed="8.00" length="14.19" shape="-573.30,-913.07 -569.45,-912.52 -566.70,-910.87 -565.05,-908.12 -564.50,-904.27"/>
    </edge>
    <edge id=":J126_0" function="internal">
        <lane id=":J126_0_0" index="0" speed="16.67" length="8.21" shape="882.21,993.14 874.40,994.88"/>
        <lane id=":J126_0_1" index="1" speed="16.67" length="8.21" shape="881.50,990.02 873.69,991.75"/>
        <lane id=":J126_0_2" index="2" speed="16.67" length="8.21" shape="880.79,986.90 872.99,988.63"/>
        <lane id=":J126_0_3" index="3" speed="16.67" length="8.21" shape="880.79,986.90 878.28,986.95 876.54,986.21 874.79,985.46 872.28,985.51"/>
    </edge>
    <edge id=":J13_0" function="internal">
        <lane id=":J13_0_0" index="0" speed="6.26" length="9.04" shape="1285.36,863.22 1286.07,865.64 1287.38,867.15 1289.28,867.76 1291.79,867.46"/>
    </edge>
    <edge id=":J13_1" function="internal">
        <lane id=":J13_1_0" index="0" speed="7.01" length="9.67" shape="1277.83,871.20 1280.07,870.21 1281.54,868.62 1282.25,866.44 1282.19,863.67"/>
    </edge>
    <edge id=":J13_2" function="internal">
        <lane id=":J13_2_0" index="0" speed="16.67" length="14.44" shape="1277.83,871.20 1291.79,867.46"/>
        <lane id=":J13_2_1" index="1" speed="16.67" length="14.44" shape="1278.66,874.29 1292.62,870.55"/>
        <lane id=":J13_2_2" index="2" speed="16.67" length="14.44" shape="1279.49,877.39 1293.44,873.65"/>
    </edge>
    <edge id=":J15_0" function="internal">
        <lane id=":J15_0_0" index="0" speed="16.67" length="14.42" shape="825.19,1006.05 811.13,1009.26"/>
        <lane id=":J15_0_1" index="1" speed="16.67" length="14.42" shape="824.48,1002.93 810.42,1006.14"/>
        <lane id=":J15_0_2" index="2" speed="16.67" length="14.42" shape="823.77,999.81 809.72,1003.01"/>
    </edge>
    <edge id=":J15_3" function="internal">
        <lane id=":J15_3_0" index="0" speed="9.65" length="20.98" shape="823.05,996.69 819.10,996.52 815.74,994.06 812.94,989.32 810.73,982.30"/>
    </edge>
    <edge id=":J15_4" function="internal">
        <lane id=":J15_4_0" index="0" speed="4.22" length="7.03" shape="823.05,996.69 821.03,995.92 820.17,994.89 820.49,993.58 821.98,992.00"/>
    </edge>
    <edge id=":J15_5" function="internal">
        <lane id=":J15_5_0" index="0" speed="6.52" length="9.01" shape="813.85,981.57 814.75,983.87 816.16,985.34 818.10,985.97 820.55,985.77"/>
    </edge>
    <edge id=":J15_6" function="internal">
        <lane id=":J15_6_0" index="0" speed="10.22" length="23.98" shape="813.85,981.57 815.31,990.21 815.11,996.67 813.25,1000.94 809.72,1003.01"/>
    </edge>
    <edge id=":J15_7" function="internal">
        <lane id=":J15_7_0" index="0" speed="6.51" length="8.98" shape="806.61,989.03 808.89,988.11 810.34,986.69 810.95,984.75 810.73,982.30"/>
    </edge>
    <edge id=":J15_8" function="internal">
        <lane id=":J15_8_0" index="0" speed="16.67" length="14.32" shape="806.61,989.03 820.55,985.77"/>
        <lane id=":J15_8_1" index="1" speed="16.67" length="14.32" shape="807.37,992.14 821.27,988.89"/>
        <lane id=":J15_8_2" index="2" speed="16.67" length="14.32" shape="807.98,995.28 821.98,992.00"/>
    </edge>
    <edge id=":J16_0" function="internal">
        <lane id=":J16_0_0" index="0" speed="6.43" length="9.18" shape="-92.70,1245.45 -93.75,1243.18 -95.29,1241.85 -97.32,1241.44 -99.84,1241.97"/>
    </edge>
    <edge id=":J16_1" function="internal">
        <lane id=":J16_1_0" index="0" speed="16.67" length="28.46" shape="-92.70,1245.45 -102.26,1218.91"/>
        <lane id=":J16_1_1" index="1" speed="16.67" length="28.46" shape="-89.63,1244.55 -99.27,1217.77"/>
        <lane id=":J16_1_2" index="2" speed="16.67" length="28.46" shape="-86.56,1243.64 -96.28,1216.63"/>
    </edge>
    <edge id=":J16_4" function="internal">
        <lane id=":J16_4_0" index="0" speed="10.91" length="27.05" shape="-86.56,1243.64 -87.65,1236.26 -86.17,1230.29 -82.11,1225.75 -75.47,1222.62"/>
    </edge>
    <edge id=":J16_5" function="internal">
        <lane id=":J16_5_0" index="0" speed="6.71" length="9.62" shape="-72.35,1232.84 -74.57,1233.93 -75.91,1235.57 -76.36,1237.77 -75.91,1240.51"/>
    </edge>
    <edge id=":J16_6" function="internal">
        <lane id=":J16_6_0" index="0" speed="16.67" length="29.12" shape="-72.35,1232.84 -99.84,1241.97"/>
        <lane id=":J16_6_1" index="1" speed="16.67" length="29.12" shape="-73.28,1229.78 -100.92,1238.96"/>
        <lane id=":J16_6_2" index="2" speed="16.67" length="29.12" shape="-74.21,1226.72 -102.00,1235.95"/>
    </edge>
    <edge id=":J16_9" function="internal">
        <lane id=":J16_9_0" index="0" speed="11.20" length="8.58" shape="-74.21,1226.72 -81.72,1227.95 -82.68,1227.75"/>
    </edge>
    <edge id=":J16_20" function="internal">
        <lane id=":J16_20_0" index="0" speed="11.20" length="18.68" shape="-82.68,1227.75 -87.89,1226.68 -92.75,1222.90 -96.28,1216.63"/>
    </edge>
    <edge id=":J16_10" function="internal">
        <lane id=":J16_10_0" index="0" speed="7.15" length="10.55" shape="-85.92,1212.68 -84.56,1215.08 -82.67,1216.52 -80.27,1216.99 -77.34,1216.50"/>
    </edge>
    <edge id=":J16_11" function="internal">
        <lane id=":J16_11_0" index="0" speed="16.67" length="29.33" shape="-85.92,1212.68 -75.91,1240.51"/>
        <lane id=":J16_11_1" index="1" speed="16.67" length="29.33" shape="-88.91,1213.82 -78.98,1241.42"/>
        <lane id=":J16_11_2" index="2" speed="16.67" length="29.33" shape="-91.90,1214.96 -82.05,1242.32"/>
    </edge>
    <edge id=":J16_14" function="internal">
        <lane id=":J16_14_0" index="0" speed="10.72" length="26.68" shape="-91.90,1214.96 -90.35,1221.99 -91.52,1227.84 -95.40,1232.49 -102.00,1235.95"/>
    </edge>
    <edge id=":J16_15" function="internal">
        <lane id=":J16_15_0" index="0" speed="6.46" length="9.03" shape="-105.56,1226.07 -103.36,1224.91 -102.08,1223.33 -101.71,1221.33 -102.26,1218.91"/>
    </edge>
    <edge id=":J16_16" function="internal">
        <lane id=":J16_16_0" index="0" speed="16.67" length="29.64" shape="-105.56,1226.07 -77.34,1216.50"/>
        <lane id=":J16_16_1" index="1" speed="16.67" length="29.64" shape="-104.47,1229.08 -76.40,1219.56"/>
        <lane id=":J16_16_2" index="2" speed="16.67" length="29.64" shape="-103.39,1232.09 -75.47,1222.62"/>
    </edge>
    <edge id=":J16_19" function="internal">
        <lane id=":J16_19_0" index="0" speed="10.70" length="9.06" shape="-103.39,1232.09 -95.84,1230.51 -94.52,1230.76"/>
    </edge>
    <edge id=":J16_21" function="internal">
        <lane id=":J16_21_0" index="0" speed="10.70" length="18.28" shape="-94.52,1230.76 -89.76,1231.68 -85.17,1235.62 -82.05,1242.32"/>
    </edge>
    <edge id=":J17_0" function="internal">
        <lane id=":J17_0_0" index="0" speed="6.49" length="9.03" shape="599.24,1033.62 600.14,1035.93 601.56,1037.39 603.50,1038.00 605.97,1037.76"/>
    </edge>
    <edge id=":J17_1" function="internal">
        <lane id=":J17_1_0" index="0" speed="6.51" length="9.05" shape="591.94,1041.09 594.25,1040.19 595.72,1038.77 596.34,1036.82 596.12,1034.34"/>
    </edge>
    <edge id=":J17_2" function="internal">
        <lane id=":J17_2_0" index="0" speed="16.67" length="14.46" shape="591.94,1041.09 605.97,1037.76"/>
        <lane id=":J17_2_1" index="1" speed="16.67" length="14.46" shape="592.66,1044.20 606.73,1040.87"/>
        <lane id=":J17_2_2" index="2" speed="16.67" length="14.46" shape="593.38,1047.32 607.48,1043.98"/>
    </edge>
    <edge id=":J18_0" function="internal">
        <lane id=":J18_0_0" index="0" speed="6.45" length="9.03" shape="1038.68,929.54 1039.60,931.85 1041.04,933.29 1042.99,933.86 1045.45,933.56"/>
    </edge>
    <edge id=":J18_1" function="internal">
        <lane id=":J18_1_0" index="0" speed="6.50" length="9.08" shape="1031.43,937.07 1033.74,936.17 1035.20,934.74 1035.81,932.79 1035.57,930.30"/>
    </edge>
    <edge id=":J18_2" function="internal">
        <lane id=":J18_2_0" index="0" speed="16.67" length="14.56" shape="1031.43,937.07 1045.45,933.56"/>
        <lane id=":J18_2_1" index="1" speed="16.67" length="14.56" shape="1032.16,940.19 1046.28,936.66"/>
        <lane id=":J18_2_2" index="2" speed="16.67" length="14.56" shape="1032.88,943.31 1047.11,939.75"/>
    </edge>
    <edge id=":J19_0" function="internal">
        <lane id=":J19_0_0" index="0" speed="3.90" length="2.76" shape="1246.20,610.93 1245.99,610.19 1245.59,609.73 1245.01,609.53 1244.24,609.60"/>
    </edge>
    <edge id=":J19_1" function="internal">
        <lane id=":J19_1_0" index="0" speed="6.07" length="8.29" shape="1243.49,606.49 1245.79,606.27 1247.53,606.87 1248.72,608.27 1249.37,610.48"/>
    </edge>
    <edge id=":J2_0" function="internal">
        <lane id=":J2_0_0" index="0" speed="6.50" length="9.03" shape="975.11,680.04 974.19,677.74 972.76,676.29 970.81,675.69 968.35,675.93"/>
    </edge>
    <edge id=":J2_1" function="internal">
        <lane id=":J2_1_0" index="0" speed="8.00" length="14.20" shape="975.11,680.04 974.74,676.17 975.70,673.11 977.99,670.86 981.60,669.42"/>
    </edge>
    <edge id=":J2_2" function="internal">
        <lane id=":J2_2_0" index="0" speed="6.50" length="9.03" shape="982.35,672.54 980.05,673.45 978.59,674.88 977.98,676.83 978.22,679.29"/>
    </edge>
    <edge id=":J2_3" function="internal">
        <lane id=":J2_3_0" index="0" speed="11.11" length="14.41" shape="982.35,672.54 968.35,675.93"/>
    </edge>
    <edge id=":J2_4" function="internal">
        <lane id=":J2_4_0" index="0" speed="11.11" length="14.42" shape="967.59,672.82 981.60,669.42"/>
    </edge>
    <edge id=":J2_5" function="internal">
        <lane id=":J2_5_0" index="0" speed="8.00" length="4.09" shape="967.59,672.82 971.46,672.44 971.65,672.50"/>
    </edge>
    <edge id=":J2_6" function="internal">
        <lane id=":J2_6_0" index="0" speed="8.00" length="10.12" shape="971.65,672.50 974.53,673.39 976.78,675.67 978.22,679.29"/>
    </edge>
    <edge id=":J20_0" function="internal">
        <lane id=":J20_0_0" index="0" speed="16.67" length="17.54" shape="388.11,1106.01 371.16,1110.23"/>
        <lane id=":J20_0_1" index="1" speed="16.67" length="17.54" shape="387.39,1102.89 370.37,1107.13"/>
        <lane id=":J20_0_2" index="2" speed="16.67" length="17.54" shape="386.67,1099.77 369.59,1104.03"/>
    </edge>
    <edge id=":J20_3" function="internal">
        <lane id=":J20_3_0" index="0" speed="10.13" length="7.07" shape="386.67,1099.77 381.17,1099.98 379.77,1099.29"/>
    </edge>
    <edge id=":J20_10" function="internal">
        <lane id=":J20_10_0" index="0" speed="10.13" length="16.47" shape="379.77,1099.29 376.72,1097.79 373.31,1093.21 370.96,1086.23"/>
    </edge>
    <edge id=":J20_4" function="internal">
        <lane id=":J20_4_0" index="0" speed="7.38" length="11.98" shape="374.08,1085.53 375.17,1087.80 377.22,1089.13 380.22,1089.51 384.18,1088.96"/>
    </edge>
    <edge id=":J20_5" function="internal">
        <lane id=":J20_5_0" index="0" speed="9.72" length="20.97" shape="374.08,1085.53 375.18,1092.85 374.80,1098.37 372.93,1102.10 369.59,1104.03"/>
    </edge>
    <edge id=":J20_6" function="internal">
        <lane id=":J20_6_0" index="0" speed="6.62" length="9.19" shape="366.83,1093.21 369.11,1092.26 370.56,1090.78 371.17,1088.77 370.96,1086.23"/>
    </edge>
    <edge id=":J20_7" function="internal">
        <lane id=":J20_7_0" index="0" speed="16.67" length="17.79" shape="366.83,1093.21 384.18,1088.96"/>
        <lane id=":J20_7_1" index="1" speed="16.67" length="17.79" shape="367.62,1096.31 384.90,1092.08"/>
        <lane id=":J20_7_2" index="2" speed="16.67" length="17.79" shape="368.41,1099.41 385.62,1095.20"/>
    </edge>