<?xml version="1.0" encoding="UTF-8"?>

<!-- generated on 2023-11-20 12:29:03 by Eclipse SUMO netedit Version 1.19.0
<configuration xmlns:xsi="http://www.w3.org/2001/XMLSchema-instance" xsi:noNamespaceSchemaLocation="http://sumo.dlr.de/xsd/neteditConfiguration.xsd">

    <input>
        <additional-files value="taz.add.xml"/>
        <sumo-net-file value="basic.net.xml"/>
    </input>

    <output>
        <output-file value="basic.net.xml"/>
    </output>

    <processing>
        <geometry.min-radius.fix.railways value="false"/>
        <geometry.max-grade.fix value="false"/>
        <offset.disable-normalization value="true"/>
        <lefthand value="0"/>
    </processing>

    <junctions>
        <no-turnarounds value="true"/>
        <junctions.corner-detail value="5"/>
        <junctions.limit-turn-speed value="5.50"/>
        <rectangular-lane-cut value="0"/>
    </junctions>

    <pedestrian>
        <walkingareas value="0"/>
    </pedestrian>

    <visualisation>
        <gui-settings-file value="background/background_config.xml"/>
    </visualisation>

</configuration>
-->

<net version="1.16" junctionCornerDetail="5" limitTurnSpeed="5.50" xmlns:xsi="http://www.w3.org/2001/XMLSchema-instance" xsi:noNamespaceSchemaLocation="http://sumo.dlr.de/xsd/net_file.xsd">

    <location netOffset="0.00,0.00" convBoundary="-1387.22,-1511.96,1618.93,1632.95" origBoundary="-10000000000.00,-10000000000.00,10000000000.00,10000000000.00" projParameter="!"/>

    <edge id=":J0_0" function="internal">
        <lane id=":J0_0_0" index="0" speed="6.42" length="8.87" width="3.00" shape="315.50,838.14 314.64,835.86 313.26,834.42 311.35,833.79 308.93,834.00"/>
    </edge>
    <edge id=":J0_1" function="internal">
        <lane id=":J0_1_0" index="0" speed="11.11" length="14.01" width="3.00" shape="315.50,838.14 312.37,824.48"/>
    </edge>
    <edge id=":J0_2" function="internal">
        <lane id=":J0_2_0" index="0" speed="7.88" length="13.72" width="3.00" shape="315.50,838.14 315.20,834.39 316.17,831.43 318.40,829.28 321.90,827.93"/>
    </edge>
    <edge id=":J0_3" function="internal">
        <lane id=":J0_3_0" index="0" speed="6.46" length="8.91" width="3.00" shape="322.58,830.85 320.31,831.73 318.86,833.13 318.23,835.04 318.43,837.48"/>
    </edge>
    <edge id=":J0_4" function="internal">
        <lane id=":J0_4_0" index="0" speed="11.11" length="14.01" width="3.00" shape="322.58,830.85 308.93,834.00"/>
    </edge>
    <edge id=":J0_5" function="internal">
        <lane id=":J0_5_0" index="0" speed="7.87" length="3.75" width="3.00" shape="322.58,830.85 318.84,831.17"/>
    </edge>
    <edge id=":J0_12" function="internal">
        <lane id=":J0_12_0" index="0" speed="7.87" length="9.96" width="3.00" shape="318.84,831.17 315.89,830.21 313.74,827.98 312.37,824.48"/>
    </edge>
    <edge id=":J0_6" function="internal">
        <lane id=":J0_6_0" index="0" speed="6.45" length="8.89" width="3.00" shape="315.29,823.79 316.18,826.07 317.57,827.51 319.48,828.13 321.90,827.93"/>
    </edge>
    <edge id=":J0_7" function="internal">
        <lane id=":J0_7_0" index="0" speed="11.11" length="14.04" width="3.00" shape="315.29,823.79 318.43,837.48"/>
    </edge>
    <edge id=":J0_8" function="internal">
        <lane id=":J0_8_0" index="0" speed="7.85" length="13.73" width="3.00" shape="315.29,823.79 315.62,827.54 314.67,830.49 312.44,832.64 308.93,834.00"/>
    </edge>
    <edge id=":J0_9" function="internal">
        <lane id=":J0_9_0" index="0" speed="6.43" length="8.88" width="3.00" shape="308.25,831.08 310.53,830.20 311.97,828.81 312.58,826.90 312.37,824.48"/>
    </edge>
    <edge id=":J0_10" function="internal">
        <lane id=":J0_10_0" index="0" speed="11.11" length="14.01" width="3.00" shape="308.25,831.08 321.90,827.93"/>
    </edge>
    <edge id=":J0_11" function="internal">
        <lane id=":J0_11_0" index="0" speed="7.84" length="3.77" width="3.00" shape="308.25,831.08 312.01,830.76"/>
    </edge>
    <edge id=":J0_13" function="internal">
        <lane id=":J0_13_0" index="0" speed="7.84" length="9.97" width="3.00" shape="312.01,830.76 314.95,831.72 317.09,833.96 318.43,837.48"/>
    </edge>
    <edge id=":J1_0" function="internal">
        <lane id=":J1_0_0" index="0" speed="6.40" length="8.87" width="3.00" shape="752.22,733.76 751.33,731.49 749.93,730.06 748.02,729.47 745.60,729.72"/>
    </edge>
    <edge id=":J1_1" function="internal">
        <lane id=":J1_1_0" index="0" speed="7.88" length="13.74" width="3.00" shape="752.22,733.76 751.88,730.00 752.82,727.03 755.03,724.86 758.52,723.48"/>
    </edge>
    <edge id=":J1_2" function="internal">
        <lane id=":J1_2_0" index="0" speed="6.46" length="8.91" width="3.00" shape="759.22,726.39 756.96,727.29 755.53,728.70 754.92,730.63 755.14,733.07"/>
    </edge>
    <edge id=":J1_3" function="internal">
        <lane id=":J1_3_0" index="0" speed="11.11" length="14.02" width="3.00" shape="759.22,726.39 745.60,729.72"/>
    </edge>
    <edge id=":J1_4" function="internal">
        <lane id=":J1_4_0" index="0" speed="11.11" length="14.05" width="3.00" shape="744.87,726.81 758.52,723.48"/>
    </edge>
    <edge id=":J1_5" function="internal">
        <lane id=":J1_5_0" index="0" speed="7.83" length="3.78" width="3.00" shape="744.87,726.81 748.63,726.42"/>
    </edge>
    <edge id=":J1_6" function="internal">
        <lane id=":J1_6_0" index="0" speed="7.83" length="9.98" width="3.00" shape="748.63,726.42 751.60,727.34 753.77,729.55 755.14,733.07"/>
    </edge>
    <edge id=":J11_0" function="internal">
        <lane id=":J11_0_0" index="0" speed="6.55" length="9.16" width="3.75" shape="899.52,997.21 898.60,994.78 897.19,993.21 895.28,992.51 892.87,992.67"/>
    </edge>
    <edge id=":J11_1" function="internal">
        <lane id=":J11_1_0" index="0" speed="6.61" length="9.11" width="3.00" shape="906.41,989.56 904.17,990.48 902.77,991.95 902.19,993.96 902.44,996.52"/>
    </edge>
    <edge id=":J11_2" function="internal">
        <lane id=":J11_2_0" index="0" speed="16.67" length="13.82" width="3.75" shape="906.41,989.56 892.87,992.67"/>
        <lane id=":J11_2_1" index="1" speed="16.67" length="13.82" width="3.75" shape="905.52,985.92 892.05,989.01"/>
        <lane id=":J11_2_2" index="2" speed="16.67" length="13.82" width="3.75" shape="904.63,982.27 891.23,985.35"/>
    </edge>
    <edge id=":J116_0" function="internal">
        <lane id=":J116_0_0" index="0" speed="15.28" length="28.28" width="3.75" shape="-818.40,-854.53 -818.01,-850.10 -816.19,-844.21 -813.39,-836.75 -810.06,-827.63"/>
    </edge>
    <edge id=":J116_1" function="internal">
        <lane id=":J116_1_0" index="0" speed="16.67" length="27.12" width="3.75" shape="-823.07,-851.98 -813.61,-826.41"/>
        <lane id=":J116_1_1" index="1" speed="16.67" length="27.12" width="3.75" shape="-826.57,-850.62 -817.15,-825.19"/>
        <lane id=":J116_1_2" index="2" speed="16.67" length="27.12" width="3.75" shape="-830.06,-849.26 -820.70,-823.97"/>
    </edge>
    <edge id=":J117_0" function="internal">
        <lane id=":J117_0_0" index="0" speed="15.28" length="36.23" width="3.75" shape="-845.95,-833.79 -849.94,-845.77 -853.23,-855.75 -856.05,-863.21 -858.67,-867.61"/>
    </edge>
    <edge id=":J117_1" function="internal">
        <lane id=":J117_1_0" index="0" speed="16.67" length="37.83" width="3.75" shape="-842.41,-835.02 -855.19,-870.55"/>
        <lane id=":J117_1_1" index="1" speed="16.67" length="37.83" width="3.75" shape="-838.87,-836.25 -851.68,-871.85"/>
        <lane id=":J117_1_2" index="2" speed="16.67" length="37.83" width="3.75" shape="-835.32,-837.48 -848.16,-873.14"/>
    </edge>
    <edge id=":J118_0" function="internal">
        <lane id=":J118_0_0" index="0" speed="6.24" length="8.87" width="3.00" shape="24.12,79.95 23.17,77.68 21.74,76.33 19.81,75.90 17.40,76.39"/>
    </edge>
    <edge id=":J118_1" function="internal">
        <lane id=":J118_1_0" index="0" speed="8.19" length="13.84" width="3.00" shape="24.12,79.95 23.65,76.11 24.39,72.98 26.36,70.54 29.53,68.79"/>
    </edge>
    <edge id=":J118_2" function="internal">
        <lane id=":J118_2_0" index="0" speed="6.83" length="9.35" width="3.00" shape="30.57,71.61 28.46,72.78 27.17,74.43 26.69,76.57 27.03,79.19"/>
    </edge>
    <edge id=":J118_3" function="internal">
        <lane id=":J118_3_0" index="0" speed="11.11" length="14.01" width="3.00" shape="30.57,71.61 17.40,76.39"/>
    </edge>
    <edge id=":J118_4" function="internal">
        <lane id=":J118_4_0" index="0" speed="11.11" length="13.99" width="3.00" shape="16.39,73.56 29.53,68.79"/>
    </edge>
    <edge id=":J118_5" function="internal">
        <lane id=":J118_5_0" index="0" speed="7.70" length="3.89" width="3.00" shape="16.39,73.56 20.20,72.79"/>
    </edge>
    <edge id=":J118_6" function="internal">
        <lane id=":J118_6_0" index="0" speed="7.70" length="10.14" width="3.00" shape="20.20,72.79 23.25,73.47 25.52,75.60 27.03,79.19"/>
    </edge>
    <edge id=":J122_0" function="internal">
        <lane id=":J122_0_0" index="0" speed="6.43" length="8.87" width="3.00" shape="-567.60,-904.47 -567.95,-906.88 -568.98,-908.59 -570.69,-909.63 -573.10,-909.97"/>
    </edge>
    <edge id=":J122_1" function="internal">
        <lane id=":J122_1_0" index="0" speed="11.11" length="14.00" width="3.00" shape="-567.60,-904.47 -567.60,-918.47"/>
    </edge>
    <edge id=":J122_2" function="internal">
        <lane id=":J122_2_0" index="0" speed="11.11" length="14.00" width="3.00" shape="-564.60,-918.47 -564.60,-904.47"/>
    </edge>
    <edge id=":J122_3" function="internal">
        <lane id=":J122_3_0" index="0" speed="7.86" length="3.76" width="3.00" shape="-564.60,-918.47 -565.13,-914.75"/>
    </edge>
    <edge id=":J122_6" function="internal">
        <lane id=":J122_6_0" index="0" speed="7.86" length="9.95" width="3.00" shape="-565.13,-914.75 -566.72,-912.09 -569.38,-910.50 -573.10,-909.97"/>
    </edge>
    <edge id=":J122_4" function="internal">
        <lane id=":J122_4_0" index="0" speed="6.44" length="8.87" width="3.00" shape="-573.10,-912.97 -570.69,-913.31 -568.97,-914.34 -567.94,-916.06 -567.60,-918.47"/>
    </edge>
    <edge id=":J122_5" function="internal">
        <lane id=":J122_5_0" index="0" speed="7.86" length="13.71" width="3.00" shape="-573.10,-912.97 -569.38,-912.44 -566.73,-910.84 -565.13,-908.19 -564.60,-904.47"/>
    </edge>
    <edge id=":J124_0" function="internal">
        <lane id=":J124_0_0" index="0" speed="16.67" length="24.93" width="3.75" shape="476.83,1091.45 452.61,1097.00"/>
        <lane id=":J124_0_1" index="1" speed="16.67" length="24.93" width="3.75" shape="475.98,1087.80 451.77,1093.35"/>
        <lane id=":J124_0_2" index="2" speed="16.67" length="24.93" width="3.75" shape="475.13,1084.15 450.93,1089.69"/>
        <lane id=":J124_0_3" index="3" speed="16.67" length="24.93" width="3.75" shape="475.13,1084.15 467.78,1085.24 462.62,1085.10 457.45,1084.96 450.09,1086.04"/>
    </edge>
    <edge id=":J125_0" function="internal">
        <lane id=":J125_0_0" index="0" speed="16.67" length="23.81" width="3.75" shape="17.02,1212.11 -5.66,1218.94"/>
        <lane id=":J125_0_1" index="1" speed="16.67" length="23.81" width="3.75" shape="15.93,1208.52 -6.76,1215.36"/>
        <lane id=":J125_0_2" index="2" speed="16.67" length="23.81" width="3.75" shape="14.84,1204.93 -7.87,1211.78"/>
        <lane id=":J125_0_3" index="3" speed="16.67" length="23.81" width="3.75" shape="14.84,1204.93 7.89,1206.42 2.93,1206.54 -2.02,1206.68 -8.97,1208.19"/>
    </edge>
    <edge id=":J126_0" function="internal">
        <lane id=":J126_0_0" index="0" speed="16.67" length="27.35" width="3.75" shape="887.70,993.83 861.16,999.84"/>
        <lane id=":J126_0_1" index="1" speed="16.67" length="27.35" width="3.75" shape="886.88,990.17 860.30,996.19"/>
        <lane id=":J126_0_2" index="2" speed="16.67" length="27.35" width="3.75" shape="886.06,986.51 859.45,992.54"/>
        <lane id=":J126_0_3" index="3" speed="16.67" length="27.35" width="3.75" shape="886.06,986.51 877.98,987.71 872.31,987.64 866.65,987.61 858.59,988.89"/>
    </edge>
    <edge id=":J127_0" function="internal">
        <lane id=":J127_0_0" index="0" speed="16.67" length="23.01" width="3.75" shape="-71.91,1339.11 -78.55,1317.18"/>
        <lane id=":J127_0_1" index="1" speed="16.67" length="23.01" width="3.75" shape="-68.32,1338.03 -74.96,1316.10"/>
        <lane id=":J127_0_2" index="2" speed="16.67" length="23.01" width="3.75" shape="-64.73,1336.94 -71.37,1315.02"/>
        <lane id=":J127_0_3" index="3" speed="16.67" length="23.01" width="3.75" shape="-64.73,1336.94 -66.16,1330.22 -66.26,1325.44 -66.36,1320.66 -67.77,1313.94"/>
    </edge>
    <edge id=":J128_0" function="internal">
        <lane id=":J128_0_0" index="0" speed="16.67" length="23.66" width="3.75" shape="-115.01,1125.02 -106.97,1147.23"/>
        <lane id=":J128_0_1" index="1" speed="16.67" length="23.66" width="3.75" shape="-118.55,1126.27 -110.52,1148.44"/>
        <lane id=":J128_0_2" index="2" speed="16.67" length="23.66" width="3.75" shape="-122.08,1127.52 -114.06,1149.66"/>
        <lane id=":J128_0_3" index="3" speed="16.67" length="23.66" width="3.75" shape="-122.08,1127.52 -120.26,1134.32 -119.81,1139.18 -119.38,1144.06 -117.61,1150.88"/>
    </edge>
    <edge id=":J129_0" function="internal">
        <lane id=":J129_0_0" index="0" speed="16.67" length="20.51" width="3.75" shape="-253.23,811.77 -260.14,792.55"/>
        <lane id=":J129_0_1" index="1" speed="16.67" length="20.51" width="3.75" shape="-249.70,810.51 -256.60,791.30"/>
        <lane id=":J129_0_2" index="2" speed="16.67" length="20.51" width="3.75" shape="-246.17,809.24 -253.07,790.05"/>
        <lane id=":J129_0_3" index="3" speed="16.67" length="20.51" width="3.75" shape="-246.17,809.24 -247.69,803.31 -247.87,799.03 -248.04,794.75 -249.53,788.80"/>
    </edge>
    <edge id=":J13_0" function="internal">
        <lane id=":J13_0_0" index="0" speed="6.29" length="9.20" width="3.75" shape="1285.03,861.61 1285.75,864.15 1287.06,865.75 1288.95,866.41 1291.43,866.14"/>
    </edge>
    <edge id=":J13_1" function="internal">
        <lane id=":J13_1_0" index="0" speed="7.07" length="9.76" width="3.00" shape="1277.84,869.73 1280.03,868.75 1281.46,867.14 1282.14,864.90 1282.06,862.03"/>
    </edge>
    <edge id=":J13_2" function="internal">
        <lane id=":J13_2_0" index="0" speed="16.67" length="14.09" width="3.75" shape="1277.84,869.73 1291.43,866.14"/>
        <lane id=":J13_2_1" index="1" speed="16.67" length="14.09" width="3.75" shape="1278.78,873.36 1292.40,869.76"/>
        <lane id=":J13_2_2" index="2" speed="16.67" length="14.09" width="3.75" shape="1279.72,876.99 1293.37,873.38"/>
    </edge>
    <edge id=":J130_0" function="internal">
        <lane id=":J130_0_0" index="0" speed="16.67" length="20.87" width="3.75" shape="-426.10,322.40 -432.79,302.77"/>
        <lane id=":J130_0_1" index="1" speed="16.67" length="20.87" width="3.75" shape="-422.56,321.16 -429.25,301.52"/>
        <lane id=":J130_0_2" index="2" speed="16.67" length="20.87" width="3.75" shape="-419.02,319.92 -425.71,300.28"/>
        <lane id=":J130_0_3" index="3" speed="16.67" length="20.87" width="3.75" shape="-419.02,319.92 -420.49,313.85 -420.59,309.47 -420.70,305.10 -422.18,299.03"/>
    </edge>
    <edge id=":J131_0" function="internal">
        <lane id=":J131_0_0" index="0" speed="16.67" length="21.20" width="3.75" shape="-465.35,137.64 -457.91,157.43"/>
        <lane id=":J131_0_1" index="1" speed="16.67" length="21.20" width="3.75" shape="-468.87,138.95 -461.43,158.71"/>
        <lane id=":J131_0_2" index="2" speed="16.67" length="21.20" width="3.75" shape="-472.38,140.26 -464.96,159.98"/>
        <lane id=":J131_0_3" index="3" speed="16.67" length="21.20" width="3.75" shape="-472.38,140.26 -470.71,146.35 -470.40,150.74 -470.10,155.15 -468.49,161.26"/>
    </edge>
    <edge id=":J132_0" function="internal">
        <lane id=":J132_0_0" index="0" speed="16.67" length="22.40" width="3.75" shape="-600.99,-155.75 -609.01,-176.60"/>
        <lane id=":J132_0_1" index="1" speed="16.67" length="22.40" width="3.75" shape="-597.49,-157.08 -605.49,-177.91"/>
        <lane id=":J132_0_2" index="2" speed="16.67" length="22.40" width="3.75" shape="-593.98,-158.41 -601.98,-179.22"/>
        <lane id=":J132_0_3" index="3" speed="16.67" length="22.40" width="3.75" shape="-593.98,-158.41 -595.82,-164.83 -596.25,-169.46 -596.67,-174.10 -598.46,-180.53"/>
    </edge>
    <edge id=":J133_0" function="internal">
        <lane id=":J133_0_0" index="0" speed="16.67" length="23.55" width="3.75" shape="-643.63,-344.22 -635.61,-322.14"/>
        <lane id=":J133_0_1" index="1" speed="16.67" length="23.55" width="3.75" shape="-647.16,-342.94 -639.14,-320.89"/>
        <lane id=":J133_0_2" index="2" speed="16.67" length="23.55" width="3.75" shape="-650.69,-341.67 -642.68,-319.63"/>
        <lane id=":J133_0_3" index="3" speed="16.67" length="23.55" width="3.75" shape="-650.69,-341.67 -648.84,-334.89 -648.43,-330.03 -648.02,-325.16 -646.21,-318.37"/>
    </edge>
    <edge id=":J134_0" function="internal">
        <lane id=":J134_0_0" index="0" speed="15.28" length="34.12" width="3.75" shape="-952.80,-1210.05 -948.30,-1199.07 -944.63,-1189.93 -941.46,-1183.14 -938.49,-1179.24"/>
    </edge>
    <edge id=":J134_1" function="internal">
        <lane id=":J134_1_0" index="0" speed="16.67" length="36.63" width="3.75" shape="-956.25,-1208.57 -942.53,-1174.41"/>
        <lane id=":J134_1_1" index="1" speed="16.67" length="36.63" width="3.75" shape="-959.70,-1207.09 -946.05,-1173.10"/>
        <lane id=":J134_1_2" index="2" speed="16.67" length="36.63" width="3.75" shape="-963.15,-1205.62 -949.56,-1171.80"/>
    </edge>
    <edge id=":J135_0" function="internal">
        <lane id=":J135_0_0" index="0" speed="16.67" length="38.87" width="3.75" shape="-963.19,-1159.23 -976.95,-1195.34"/>
        <lane id=":J135_0_1" index="1" speed="16.67" length="38.87" width="3.75" shape="-959.68,-1160.54 -973.52,-1196.86"/>
        <lane id=":J135_0_2" index="2" speed="16.67" length="38.87" width="3.75" shape="-956.17,-1161.85 -970.09,-1198.38"/>
    </edge>
    <edge id=":J135_3" function="internal">
        <lane id=":J135_3_0" index="0" speed="15.28" length="35.18" width="3.75" shape="-968.63,-1160.85 -969.19,-1165.84 -971.60,-1173.19 -975.46,-1182.62 -980.38,-1193.82"/>
    </edge>
    <edge id=":J138_0" function="internal">
        <lane id=":J138_0_0" index="0" speed="19.45" length="43.69" width="3.75" shape="-1014.73,-1018.70 -1020.64,-1019.93 -1030.70,-1020.77 -1043.64,-1021.48 -1058.21,-1022.36"/>
    </edge>
    <edge id=":J138_1" function="internal">
        <lane id=":J138_1_0" index="0" speed="25.00" length="48.62" width="3.75" shape="-1009.47,-1022.55 -1057.95,-1026.10"/>
        <lane id=":J138_1_1" index="1" speed="25.00" length="48.62" width="3.75" shape="-1009.20,-1026.29 -1057.69,-1029.84"/>
        <lane id=":J138_1_2" index="2" speed="25.00" length="48.62" width="3.75" shape="-1008.93,-1030.03 -1057.43,-1033.58"/>
    </edge>
    <edge id=":J139_0" function="internal">
        <lane id=":J139_0_0" index="0" speed="15.94" length="22.37" width="3.75" shape="-1058.38,-1053.80 -1050.86,-1053.01 -1044.72,-1052.31 -1039.91,-1052.36 -1036.38,-1053.80"/>
    </edge>
    <edge id=":J139_1" function="internal">
        <lane id=":J139_1_0" index="0" speed="25.00" length="27.86" width="3.75" shape="-1058.66,-1050.06 -1030.87,-1048.02"/>
        <lane id=":J139_1_1" index="1" speed="25.00" length="27.86" width="3.75" shape="-1058.94,-1046.32 -1031.15,-1044.28"/>
        <lane id=":J139_1_2" index="2" speed="25.00" length="27.86" width="3.75" shape="-1059.21,-1042.58 -1031.42,-1040.54"/>
    </edge>
    <edge id=":J140_0" function="internal">
        <lane id=":J140_0_0" index="0" speed="19.29" length="25.63" width="3.75" shape="-700.33,-996.20 -709.04,-997.09 -716.18,-997.91 -721.74,-998.05 -725.70,-996.88"/>
    </edge>
    <edge id=":J140_1" function="internal">
        <lane id=":J140_1_0" index="0" speed="25.00" length="29.27" width="3.75" shape="-700.05,-999.94 -729.23,-1002.07"/>
        <lane id=":J140_1_1" index="1" speed="25.00" length="29.27" width="3.75" shape="-699.77,-1003.68 -728.96,-1005.81"/>
        <lane id=":J140_1_2" index="2" speed="25.00" length="29.27" width="3.75" shape="-699.49,-1007.42 -728.69,-1009.55"/>
    </edge>
    <edge id=":J141_0" function="internal">
        <lane id=":J141_0_0" index="0" speed="19.45" length="41.43" width="3.75" shape="-739.18,-1031.21 -733.68,-1029.85 -724.41,-1028.98 -712.23,-1028.24 -698.01,-1027.31"/>
    </edge>
    <edge id=":J141_1" function="internal">
        <lane id=":J141_1_0" index="0" speed="25.00" length="47.52" width="3.75" shape="-745.70,-1027.05 -698.30,-1023.57"/>
        <lane id=":J141_1_1" index="1" speed="25.00" length="47.52" width="3.75" shape="-745.98,-1023.31 -698.59,-1019.83"/>
        <lane id=":J141_1_2" index="2" speed="25.00" length="47.52" width="3.75" shape="-746.25,-1019.57 -698.88,-1016.09"/>
    </edge>
    <edge id=":J148_0" function="internal">
        <lane id=":J148_0_0" index="0" speed="25.00" length="28.88" width="3.75" shape="-621.15,-994.44 -629.76,-994.42 -635.66,-993.43 -641.55,-992.44 -650.16,-992.43"/>
        <lane id=":J148_0_1" index="1" speed="25.00" length="28.88" width="3.75" shape="-621.15,-994.44 -649.88,-996.17"/>
        <lane id=":J148_0_2" index="2" speed="25.00" length="28.88" width="3.75" shape="-620.87,-998.18 -649.60,-999.91"/>
        <lane id=":J148_0_3" index="3" speed="25.00" length="28.88" width="3.75" shape="-620.60,-1001.92 -649.32,-1003.65"/>
    </edge>
    <edge id=":J149_0" function="internal">
        <lane id=":J149_0_0" index="0" speed="16.67" length="25.16" width="3.75" shape="-790.49,-770.78 -788.61,-763.52 -788.16,-758.33 -787.71,-753.14 -785.81,-745.88"/>
        <lane id=":J149_0_1" index="1" speed="16.67" length="25.16" width="3.75" shape="-794.04,-769.56 -785.81,-745.88"/>
        <lane id=":J149_0_2" index="2" speed="16.67" length="25.16" width="3.75" shape="-797.59,-768.34 -789.35,-744.66"/>
        <lane id=":J149_0_3" index="3" speed="16.67" length="25.16" width="3.75" shape="-801.13,-767.12 -792.90,-743.43"/>
    </edge>
    <edge id=":J15_0" function="internal">
        <lane id=":J15_0_0" index="0" speed="16.67" length="14.12" width="3.75" shape="825.47,1008.21 811.74,1011.33"/>
        <lane id=":J15_0_1" index="1" speed="16.67" length="14.12" width="3.75" shape="824.62,1004.56 810.85,1007.69"/>
        <lane id=":J15_0_2" index="2" speed="16.67" length="14.12" width="3.75" shape="823.76,1000.91 809.96,1004.04"/>
    </edge>
    <edge id=":J15_3" function="internal">
        <lane id=":J15_3_0" index="0" speed="10.01" length="22.62" width="3.00" shape="822.90,997.26 819.02,996.97 815.63,994.15 812.73,988.80 810.34,980.93"/>
    </edge>
    <edge id=":J15_4" function="internal">
        <lane id=":J15_4_0" index="0" speed="4.48" length="7.83" width="3.75" shape="822.90,997.26 820.64,996.42 819.68,995.26 820.03,993.81 821.68,992.04"/>
    </edge>
    <edge id=":J15_5" function="internal">
        <lane id=":J15_5_0" index="0" speed="6.54" length="9.21" width="3.75" shape="813.26,980.24 814.18,982.68 815.61,984.25 817.54,984.93 819.96,984.74"/>
    </edge>
    <edge id=":J15_6" function="internal">
        <lane id=":J15_6_0" index="0" speed="10.68" length="26.03" width="3.75" shape="813.26,980.24 814.97,989.89 814.99,997.07 813.32,1001.79 809.96,1004.04"/>
    </edge>
    <edge id=":J15_7" function="internal">
        <lane id=":J15_7_0" index="0" speed="6.70" length="9.41" width="3.00" shape="806.05,988.00 808.43,987.05 809.94,985.55 810.57,983.51 810.34,980.93"/>
    </edge>
    <edge id=":J15_8" function="internal">
        <lane id=":J15_8_0" index="0" speed="16.67" length="14.25" width="3.75" shape="806.05,988.00 819.96,984.74"/>
        <lane id=":J15_8_1" index="1" speed="16.67" length="14.25" width="3.75" shape="806.94,991.64 820.82,988.39"/>
        <lane id=":J15_8_2" index="2" speed="16.67" length="14.25" width="3.75" shape="807.83,995.28 821.68,992.04"/>
    </edge>
    <edge id=":J150_0" function="internal">
        <lane id=":J150_0_0" index="0" speed="25.00" length="25.14" width="3.75" shape="-647.29,-1023.39 -639.88,-1022.25 -634.94,-1020.62 -630.00,-1019.00 -622.59,-1017.89"/>
        <lane id=":J150_0_1" index="1" speed="25.00" length="25.14" width="3.75" shape="-647.57,-1019.66 -622.59,-1017.89"/>
        <lane id=":J150_0_2" index="2" speed="25.00" length="25.14" width="3.75" shape="-647.86,-1015.92 -622.87,-1014.15"/>
        <lane id=":J150_0_3" index="3" speed="25.00" length="25.14" width="3.75" shape="-648.15,-1012.18 -623.14,-1010.41"/>
    </edge>
    <edge id=":J151_0" function="internal">
        <lane id=":J151_0_0" index="0" speed="16.67" length="24.74" width="3.75" shape="-986.14,-1277.11 -982.57,-1270.62 -979.29,-1266.64 -976.03,-1262.64 -972.54,-1256.12"/>
        <lane id=":J151_0_1" index="1" speed="16.67" length="24.74" width="3.75" shape="-986.14,-1277.11 -975.98,-1254.64"/>
        <lane id=":J151_0_2" index="2" speed="16.67" length="24.74" width="3.75" shape="-989.57,-1275.59 -979.43,-1253.17"/>
        <lane id=":J151_0_3" index="3" speed="16.67" length="24.74" width="3.75" shape="-993.00,-1274.08 -982.88,-1251.69"/>
    </edge>
    <edge id=":J152_0" function="internal">
        <lane id=":J152_0_0" index="0" speed="16.67" length="21.46" width="3.75" shape="-1000.72,-1239.66 -1002.76,-1245.74 -1003.30,-1250.19 -1003.83,-1254.65 -1005.86,-1260.74"/>
        <lane id=":J152_0_1" index="1" speed="16.67" length="21.46" width="3.75" shape="-997.29,-1241.18 -1005.86,-1260.74"/>
        <lane id=":J152_0_2" index="2" speed="16.67" length="21.46" width="3.75" shape="-993.86,-1242.70 -1002.43,-1262.25"/>
        <lane id=":J152_0_3" index="3" speed="16.67" length="21.46" width="3.75" shape="-990.43,-1244.22 -999.00,-1263.76"/>
    </edge>
    <edge id=":J153_0" function="internal">
        <lane id=":J153_0_0" index="0" speed="25.00" length="23.83" width="3.75" shape="-1132.31,-1055.48 -1125.20,-1055.55 -1120.34,-1056.49 -1115.48,-1057.42 -1108.37,-1057.49"/>
        <lane id=":J153_0_1" index="1" speed="25.00" length="23.83" width="3.75" shape="-1132.31,-1055.48 -1108.64,-1053.75"/>
        <lane id=":J153_0_2" index="2" speed="25.00" length="23.83" width="3.75" shape="-1132.59,-1051.74 -1108.92,-1050.01"/>
        <lane id=":J153_0_3" index="3" speed="25.00" length="23.83" width="3.75" shape="-1132.86,-1048.00 -1109.19,-1046.27"/>
    </edge>
    <edge id=":J154_0" function="internal">
        <lane id=":J154_0_0" index="0" speed="25.00" length="27.16" width="3.75" shape="-1108.71,-1025.88 -1116.73,-1027.03 -1122.09,-1028.72 -1127.45,-1030.42 -1135.46,-1031.60"/>
        <lane id=":J154_0_1" index="1" speed="25.00" length="27.16" width="3.75" shape="-1108.45,-1029.62 -1135.46,-1031.60"/>
        <lane id=":J154_0_2" index="2" speed="25.00" length="27.16" width="3.75" shape="-1108.19,-1033.36 -1135.18,-1035.34"/>
        <lane id=":J154_0_3" index="3" speed="25.00" length="27.16" width="3.75" shape="-1107.93,-1037.10 -1134.91,-1039.08"/>
    </edge>
    <edge id=":J155_0" function="internal">
        <lane id=":J155_0_0" index="0" speed="16.67" length="31.52" width="3.75" shape="-815.22,-757.65 -818.76,-765.96 -822.19,-771.53 -825.67,-777.24 -829.39,-785.99"/>
        <lane id=":J155_0_1" index="1" speed="16.67" length="31.52" width="3.75" shape="-815.22,-757.65 -825.85,-787.22"/>
        <lane id=":J155_0_2" index="2" speed="16.67" length="31.52" width="3.75" shape="-811.67,-758.87 -822.31,-788.45"/>
        <lane id=":J155_0_3" index="3" speed="16.67" length="31.52" width="3.75" shape="-808.12,-760.09 -818.76,-789.68"/>
    </edge>
    <edge id=":J157_0" function="internal">
        <lane id=":J157_0_0" index="0" speed="16.67" length="22.54" width="3.75" shape="-879.25,-934.87 -887.15,-955.97"/>
        <lane id=":J157_0_1" index="1" speed="16.67" length="22.54" width="3.75" shape="-875.74,-936.18 -883.64,-957.29"/>
        <lane id=":J157_0_2" index="2" speed="16.67" length="22.54" width="3.75" shape="-872.23,-937.49 -880.13,-958.60"/>
    </edge>
    <edge id=":J157_3" function="internal">
        <lane id=":J157_3_0" index="0" speed="11.30" length="22.19" width="3.75" shape="-885.37,-933.39 -884.93,-935.33 -885.67,-939.53 -887.58,-945.97 -890.66,-954.66"/>
    </edge>
    <edge id=":J158_0" function="internal">
        <lane id=":J158_0_0" index="0" speed="15.28" length="23.02" width="3.75" shape="-854.21,-946.82 -851.71,-939.44 -849.72,-933.39 -847.66,-928.88 -844.93,-926.10"/>
    </edge>
    <edge id=":J158_1" function="internal">
        <lane id=":J158_1_0" index="0" speed="16.67" length="23.05" width="3.75" shape="-857.73,-945.52 -849.72,-923.91"/>
        <lane id=":J158_1_1" index="1" speed="16.67" length="23.05" width="3.75" shape="-861.25,-944.21 -853.24,-922.60"/>
        <lane id=":J158_1_2" index="2" speed="16.67" length="23.05" width="3.75" shape="-864.76,-942.91 -856.75,-921.30"/>
    </edge>
    <edge id=":J159_0" function="internal">
        <lane id=":J159_0_0" index="0" speed="15.28" length="23.54" width="3.75" shape="-908.88,-1098.51 -909.13,-1094.59 -907.69,-1089.72 -905.17,-1083.69 -902.17,-1076.28"/>
    </edge>
    <edge id=":J159_1" function="internal">
        <lane id=":J159_1_0" index="0" speed="16.67" length="23.41" width="3.75" shape="-913.76,-1096.75 -905.69,-1074.98"/>
        <lane id=":J159_1_1" index="1" speed="16.67" length="23.41" width="3.75" shape="-917.34,-1095.62 -909.21,-1073.67"/>
        <lane id=":J159_1_2" index="2" speed="16.67" length="23.41" width="3.75" shape="-920.93,-1094.50 -912.72,-1072.37"/>
    </edge>
    <edge id=":J16_0" function="internal">