<?xml version="1.0" encoding="UTF-8"?>

<!-- generated on 2023-11-14 15:19:31 by Eclipse SUMO netedit Version 1.19.0
<configuration xmlns:xsi="http://www.w3.org/2001/XMLSchema-instance" xsi:noNamespaceSchemaLocation="http://sumo.dlr.de/xsd/neteditConfiguration.xsd">

    <input>
        <additional-files value="taz.add.xml"/>
        <sumo-net-file value="basic.net.xml"/>
    </input>

    <output>
        <output-file value="basic.net.xml"/>
    </output>

    <processing>
        <geometry.min-radius.fix.railways value="false"/>
        <geometry.max-grade.fix value="false"/>
        <offset.disable-normalization value="true"/>
        <lefthand value="0"/>
    </processing>

    <junctions>
        <no-internal-links value="true"/>
        <no-turnarounds value="true"/>
        <junctions.corner-detail value="5"/>
        <junctions.limit-turn-speed value="5.50"/>
        <rectangular-lane-cut value="0"/>
    </junctions>

    <pedestrian>
        <walkingareas value="0"/>
    </pedestrian>

    <visualisation>
        <gui-settings-file value="background/background_config.xml"/>
    </visualisation>

</configuration>
-->

<net version="1.16" junctionCornerDetail="5" limitTurnSpeed="5.50" xmlns:xsi="http://www.w3.org/2001/XMLSchema-instance" xsi:noNamespaceSchemaLocation="http://sumo.dlr.de/xsd/net_file.xsd">

    <location netOffset="0.00,0.00" convBoundary="-1387.22,-1511.96,1618.93,1632.95" origBoundary="-10000000000.00,-10000000000.00,10000000000.00,10000000000.00" projParameter="!"/>

    <edge id="-E0" from="J0" to="J20" priority="-1">
        <lane id="-E0_0" index="0" speed="13.89" length="275.55" shape="318.57,837.66 374.08,1085.53"/>
    </edge>
    <edge id="-E1" from="J1" to="J15" priority="-1">
        <lane id="-E1_0" index="0" speed="13.89" length="277.55" shape="755.29,733.24 813.98,982.15"/>
    </edge>
    <edge id="-E1.137" from="J7" to="J16" priority="-1" shape="243.57,1134.43 155.38,1155.29 -77.84,1226.15">
        <lane id="-E1.137_0" index="0" speed="13.89" length="345.86" shape="238.20,1143.92 157.47,1163.02 -72.35,1232.84"/>
        <lane id="-E1.137_1" index="1" speed="13.89" length="345.86" shape="237.46,1140.81 156.63,1159.93 -73.28,1229.78"/>
        <lane id="-E1.137_2" index="2" speed="13.89" length="345.86" shape="236.73,1137.69 155.80,1156.84 -74.22,1226.72"/>
    </edge>
    <edge id="-E10" from="J23" to="J22" priority="-1">
        <lane id="-E10_0" index="0" speed="13.89" length="279.73" shape="657.47,1322.32 602.32,1062.04"/>
    </edge>
    <edge id="-E11" from="J24" to="J17" priority="-1">
        <lane id="-E11_0" index="0" speed="13.89" length="274.66" shape="541.75,786.38 599.24,1033.64"/>
    </edge>
    <edge id="-E12" from="J19" to="J13" priority="-1">
        <lane id="-E12_0" index="0" speed="13.89" length="272.87" shape="1249.37,610.48 1285.36,863.22"/>
    </edge>
    <edge id="-E13" from="J19" to="J21" priority="-1">
        <lane id="-E13_0" index="0" speed="13.89" length="145.80" shape="1244.24,609.60 1112.91,641.21"/>
    </edge>
    <edge id="-E13.141" from="J21" to="J2" priority="-1">
        <lane id="-E13.141_0" index="0" speed="13.89" length="134.27" shape="1098.91,644.58 982.35,672.54"/>
    </edge>
    <edge id="-E14" from="J25" to="J21" priority="-1">
        <lane id="-E14_0" index="0" speed="13.89" length="48.62" shape="1115.23,689.01 1105.65,648.72"/>
    </edge>
    <edge id="-E15" from="J26" to="J1" priority="-1">
        <lane id="-E15_0" index="0" speed="13.89" length="119.54" shape="861.68,701.99 759.43,726.44"/>
    </edge>
    <edge id="-E16" from="J2" to="J26" priority="-1">
        <lane id="-E16_0" index="0" speed="13.89" length="109.79" shape="968.35,675.93 875.67,698.60"/>
    </edge>
    <edge id="-E17" from="J27" to="J26" priority="-1">
        <lane id="-E17_0" index="0" speed="13.89" length="49.37" shape="877.93,747.20 868.40,706.15"/>
    </edge>
    <edge id="-E18" from="J28" to="J24" priority="-1">
        <lane id="-E18_0" index="0" speed="13.89" length="117.31" shape="645.76,754.77 546.00,779.54"/>
    </edge>
    <edge id="-E19" from="J1" to="J28" priority="-1">
        <lane id="-E19_0" index="0" speed="13.89" length="102.73" shape="745.43,729.87 659.74,751.29"/>
    </edge>
    <edge id="-E2" from="J2" to="J18" priority="-1">
        <lane id="-E2_0" index="0" speed="13.89" length="268.79" shape="978.22,679.29 1038.68,929.54"/>
    </edge>
    <edge id="-E20" from="J29" to="J28" priority="-1">
        <lane id="-E20_0" index="0" speed="13.89" length="49.20" shape="662.05,799.74 652.50,758.89"/>
    </edge>
    <edge id="-E21" from="J30" to="J0" priority="-1">
        <lane id="-E21_0" index="0" speed="13.89" length="116.50" shape="422.33,807.98 322.79,830.91"/>
    </edge>
    <edge id="-E22" from="J24" to="J30" priority="-1">
        <lane id="-E22_0" index="0" speed="13.89" length="112.43" shape="531.90,782.90 436.37,804.76"/>
    </edge>
    <edge id="-E23" from="J31" to="J30" priority="-1">
        <lane id="-E23_0" index="0" speed="13.89" length="49.46" shape="438.90,853.28 429.09,812.22"/>
    </edge>
    <edge id="-E24" from="J32" to="J6" priority="-1">
        <lane id="-E24_0" index="0" speed="13.89" length="117.97" shape="200.45,859.17 99.56,882.69"/>
    </edge>
    <edge id="-E25" from="J0" to="J32" priority="-1">
        <lane id="-E25_0" index="0" speed="13.89" length="111.19" shape="308.75,834.14 214.48,855.92"/>
    </edge>
    <edge id="-E27" from="J33" to="J32" priority="-1">
        <lane id="-E27_0" index="0" speed="13.89" length="49.69" shape="216.87,904.73 207.18,863.37"/>
    </edge>
    <edge id="-E28" from="J34" to="J35" priority="-1">
        <lane id="-E28_0" index="0" speed="13.89" length="55.25" shape="-78.20,101.31 -95.07,56.39"/>
    </edge>
    <edge id="-E29" from="J36" to="J37" priority="-1">
        <lane id="-E29_0" index="0" speed="13.89" length="54.92" shape="-156.90,-151.13 -172.09,-196.29"/>
    </edge>
    <edge id="-E3" from="J3" to="J16" priority="-1" shape="27.77,1626.72 -86.10,1239.54">
        <lane id="-E3_0" index="0" speed="13.89" length="421.56" shape="22.00,1635.44 -92.70,1245.45"/>
        <lane id="-E3_1" index="1" speed="13.89" length="421.56" shape="25.07,1634.54 -89.63,1244.55"/>
        <lane id="-E3_2" index="2" speed="13.89" length="421.56" shape="28.14,1633.64 -86.56,1243.64"/>
    </edge>
    <edge id="-E30" from="J38" to="J39" priority="-1">
        <lane id="-E30_0" index="0" speed="13.89" length="55.24" shape="-313.54,-366.02 -328.93,-411.51"/>
    </edge>
    <edge id="-E31" from="J40" to="J41" priority="-1">
        <lane id="-E31_0" index="0" speed="13.89" length="54.50" shape="-422.56,-660.35 -435.56,-705.60"/>
    </edge>
    <edge id="-E32" from="J42" to="J110" priority="-1" shape="-1098.88,-1506.18 -1003.95,-1294.44 -968.78,-1214.93">
        <lane id="-E32_0" index="0" speed="13.89" length="359.43" shape="-1094.27,-1515.46 -996.64,-1297.69 -953.52,-1200.20"/>
        <lane id="-E32_1" index="1" speed="13.89" length="359.43" shape="-1097.19,-1514.15 -999.57,-1296.39 -956.44,-1198.91"/>
        <lane id="-E32_2" index="2" speed="13.89" length="359.43" shape="-1100.11,-1512.84 -1002.49,-1295.09 -959.37,-1197.61"/>
    </edge>
    <edge id="-E32.1020" from="J46" to="J44" priority="-1" shape="-269.50,719.72 -194.36,950.37">
        <lane id="-E32.1020_0" index="0" speed="13.89" length="253.90" shape="-260.18,722.50 -188.74,941.79"/>
        <lane id="-E32.1020_1" index="1" speed="13.89" length="253.90" shape="-263.22,723.49 -191.78,942.78"/>
        <lane id="-E32.1020_2" index="2" speed="13.89" length="253.90" shape="-266.26,724.49 -194.83,943.77"/>
    </edge>
    <edge id="-E32.1037" from="J77" to="J86" priority="-1" shape="-618.11,-243.28 -532.86,-9.61">
        <lane id="-E32.1037_0" index="0" speed="13.89" length="254.88" shape="-610.21,-244.96 -527.79,-19.06"/>
        <lane id="-E32.1037_1" index="1" speed="13.89" length="254.88" shape="-613.21,-243.86 -530.80,-17.96"/>
        <lane id="-E32.1037_2" index="2" speed="13.89" length="254.88" shape="-616.22,-242.76 -533.80,-16.86"/>
    </edge>
    <edge id="-E32.1266" from="J44" to="J16" priority="-1" shape="-194.36,950.37 -92.35,1218.26">
        <lane id="-E32.1266_0" index="0" speed="13.89" length="302.02" shape="-183.86,955.46 -85.92,1212.68"/>
        <lane id="-E32.1266_1" index="1" speed="13.89" length="302.02" shape="-186.85,956.60 -88.91,1213.82"/>
        <lane id="-E32.1266_2" index="2" speed="13.89" length="302.02" shape="-189.84,957.74 -91.90,1214.96"/>
    </edge>
    <edge id="-E32.1285" from="J86" to="J70" priority="-1" shape="-532.86,-9.61 -447.53,224.28">
        <lane id="-E32.1285_0" index="0" speed="13.89" length="254.79" shape="-522.85,-5.53 -440.53,220.12"/>
        <lane id="-E32.1285_1" index="1" speed="13.89" length="254.79" shape="-525.86,-4.43 -443.54,221.22"/>
        <lane id="-E32.1285_2" index="2" speed="13.89" length="254.79" shape="-528.87,-3.33 -446.54,222.32"/>
    </edge>
    <edge id="-E32.273" from="J90" to="J77" priority="-1" shape="-727.71,-545.96 -622.25,-254.58">
        <lane id="-E32.273_0" index="0" speed="13.89" length="315.82" shape="-717.68,-541.76 -615.16,-258.49"/>
        <lane id="-E32.273_1" index="1" speed="13.89" length="315.82" shape="-720.69,-540.67 -618.17,-257.41"/>
        <lane id="-E32.273_2" index="2" speed="13.89" length="315.82" shape="-723.70,-539.58 -621.18,-256.32"/>
    </edge>
    <edge id="-E32.317" from="J110" to="J109" priority="-1" shape="-968.78,-1214.93 -936.43,-1138.53 -909.04,-1068.39">
        <lane id="-E32.317_0" index="0" speed="13.89" length="114.94" shape="-946.63,-1183.14 -929.02,-1141.55 -912.13,-1098.29"/>
        <lane id="-E32.317_1" index="1" speed="13.89" length="114.94" shape="-949.58,-1181.89 -931.98,-1140.34 -915.11,-1097.13"/>
        <lane id="-E32.317_2" index="2" speed="13.89" length="114.94" shape="-952.53,-1180.64 -934.95,-1139.13 -918.09,-1095.96"/>
    </edge>
    <edge id="-E32.469" from="J109" to="J106" priority="-1" shape="-909.04,-1068.39 -892.17,-1024.01 -864.09,-943.71">
        <lane id="-E32.469_0" index="0" speed="13.89" length="179.34" shape="-906.01,-1082.95 -884.65,-1026.75 -853.57,-937.85"/>
        <lane id="-E32.469_1" index="1" speed="13.89" length="179.34" shape="-909.01,-1081.81 -887.66,-1025.66 -856.59,-936.80"/>
        <lane id="-E32.469_2" index="2" speed="13.89" length="179.34" shape="-912.00,-1080.67 -890.67,-1024.56 -859.61,-935.74"/>
    </edge>
    <edge id="-E32.503" from="J70" to="J46" priority="-1" shape="-443.57,235.49 -393.50,388.39 -302.70,618.26 -273.20,708.77">
        <lane id="-E32.503_0" index="0" speed="13.89" length="515.26" shape="-435.54,234.31 -385.97,385.67 -295.17,615.55 -266.76,702.72"/>
        <lane id="-E32.503_1" index="1" speed="13.89" length="515.26" shape="-438.58,235.30 -388.98,386.76 -298.18,616.63 -269.80,703.71"/>
        <lane id="-E32.503_2" index="2" speed="13.89" length="515.26" shape="-441.62,236.30 -391.99,387.85 -301.19,617.72 -272.84,704.70"/>
    </edge>
    <edge id="-E32.617" from="J106" to="J103" priority="-1">
        <lane id="-E32.617_0" index="0" speed="13.89" length="108.48" shape="-848.70,-923.44 -821.04,-842.62"/>
        <lane id="-E32.617_1" index="1" speed="13.89" length="108.48" shape="-851.73,-922.41 -824.07,-841.58"/>
        <lane id="-E32.617_2" index="2" speed="13.89" length="108.48" shape="-854.75,-921.37 -827.10,-840.55"/>
    </edge>
    <edge id="-E32.733" from="J103" to="J90" priority="-1">
        <lane id="-E32.733_0" index="0" speed="13.89" length="306.74" shape="-815.34,-825.90 -722.48,-555.36"/>
        <lane id="-E32.733_1" index="1" speed="13.89" length="306.74" shape="-818.36,-824.86 -725.51,-554.32"/>
        <lane id="-E32.733_2" index="2" speed="13.89" length="306.74" shape="-821.39,-823.82 -728.53,-553.29"/>
    </edge>
    <edge id="-E33" from="J43" to="J10" priority="-1">
        <lane id="-E33_0" index="0" speed="13.89" length="298.75" shape="-208.09,956.89 -476.42,1053.74"/>
    </edge>
    <edge id="-E34" from="J47" to="J44" priority="-1">
        <lane id="-E34_0" index="0" speed="13.89" length="163.78" shape="-32.18,913.61 -180.26,948.68"/>
    </edge>
    <edge id="-E35" from="J6" to="J47" priority="-1">
        <lane id="-E35_0" index="0" speed="13.89" length="120.92" shape="85.54,885.97 -18.16,910.31"/>
    </edge>
    <edge id="-E36" from="J48" to="J47" priority="-1">
        <lane id="-E36_0" index="0" speed="13.89" length="51.22" shape="-15.62,960.67 -25.46,917.79"/>
    </edge>
    <edge id="-E37" from="J9" to="J54" priority="-1">
        <lane id="-E37_0" index="0" speed="13.89" length="113.74" shape="477.12,541.33 380.12,562.95"/>
        <lane id="-E37_1" index="1" speed="13.89" length="113.74" shape="476.42,538.21 379.42,559.82"/>
    </edge>
    <edge id="-E37.458" from="J49" to="J46" priority="-1">
        <lane id="-E37.458_0" index="0" speed="13.89" length="314.93" shape="28.02,645.88 -256.39,715.70"/>
        <lane id="-E37.458_1" index="1" speed="13.89" length="314.93" shape="27.26,642.77 -257.16,712.59"/>
    </edge>
    <edge id="-E370" from="J53" to="J49" priority="-1">
        <lane id="-E370_0" index="0" speed="13.89" length="230.66" shape="252.23,591.87 42.15,642.44"/>
        <lane id="-E370_1" index="1" speed="13.89" length="230.66" shape="251.48,588.76 41.40,639.33"/>
    </edge>
    <edge id="-E370.230" from="J54" to="J53" priority="-1">
        <lane id="-E370.230_0" index="0" speed="13.89" length="116.74" shape="366.06,566.10 266.28,588.60"/>
        <lane id="-E370.230_1" index="1" speed="13.89" length="116.74" shape="365.36,562.98 265.58,585.48"/>
    </edge>
    <edge id="-E38" from="J50" to="J49" priority="-1">
        <lane id="-E38_0" index="0" speed="13.89" length="81.16" shape="49.48,711.83 34.77,650.00"/>
    </edge>
    <edge id="-E39" from="J51" to="J50" priority="-1">
        <lane id="-E39_0" index="0" speed="13.89" length="52.83" shape="1.02,729.50 45.31,718.61"/>
    </edge>
    <edge id="-E4" from="J4" to="J16" priority="-1" shape="-365.66,1327.68 -99.33,1232.34">
        <lane id="-E4_0" index="0" speed="13.89" length="301.18" shape="-374.38,1322.31 -105.56,1226.07"/>
        <lane id="-E4_1" index="1" speed="13.89" length="301.18" shape="-373.30,1325.32 -104.47,1229.08"/>
        <lane id="-E4_2" index="2" speed="13.89" length="301.18" shape="-372.22,1328.33 -103.39,1232.09"/>
    </edge>
    <edge id="-E40" from="J6" to="J50" priority="-1">
        <lane id="-E40_0" index="0" speed="13.89" length="169.00" shape="88.96,876.12 52.83,725.83"/>
    </edge>
    <edge id="-E41" from="J49" to="J52" priority="-1">
        <lane id="-E41_0" index="0" speed="13.89" length="70.42" shape="30.09,629.62 17.16,571.08"/>
    </edge>
    <edge id="-E42" from="J55" to="J54" priority="-1">
        <lane id="-E42_0" index="0" speed="13.89" length="66.55" shape="385.02,625.12 372.75,570.33"/>
    </edge>
    <edge id="-E43" from="J56" to="J53" priority="-1">
        <lane id="-E43_0" index="0" speed="13.89" length="120.95" shape="282.35,696.76 258.96,596.03"/>
    </edge>
    <edge id="-E44" from="J57" to="J56" priority="-1">
        <lane id="-E44_0" index="0" speed="13.89" length="45.96" shape="240.67,713.51 278.06,703.64"/>
    </edge>
    <edge id="-E45" from="J0" to="J56" priority="-1">
        <lane id="-E45_0" index="0" speed="13.89" length="131.10" shape="312.23,824.30 285.63,710.78"/>
    </edge>
    <edge id="-E46" from="J58" to="J9" priority="-1">
        <lane id="-E46_0" index="0" speed="13.89" length="119.61" shape="599.84,509.16 490.39,535.00"/>
    </edge>
    <edge id="-E47" from="J59" to="J9" priority="-1">
        <lane id="-E47_0" index="0" speed="13.89" length="115.70" shape="505.50,641.20 483.80,545.56"/>
    </edge>
    <edge id="-E48" from="J60" to="J59" priority="-1">
        <lane id="-E48_0" index="0" speed="13.89" length="94.02" shape="600.38,627.15 516.10,647.75"/>
    </edge>
    <edge id="-E49" from="J24" to="J59" priority="-1">
        <lane id="-E49_0" index="0" speed="13.89" length="135.17" shape="535.39,773.01 508.69,655.24"/>
    </edge>
    <edge id="-E5" from="J5" to="J6" priority="-1">
        <lane id="-E5_0" index="0" speed="13.89" length="278.42" shape="149.75,1141.23 92.25,890.15"/>
    </edge>
    <edge id="-E50" from="J61" to="J53" priority="-1">
        <lane id="-E50_0" index="0" speed="13.89" length="129.77" shape="231.34,465.91 257.31,575.03"/>
    </edge>
    <edge id="-E51" from="J62" to="J61" priority="-1">
        <lane id="-E51_0" index="0" speed="13.89" length="104.97" shape="330.64,436.72 235.49,459.17"/>
    </edge>
    <edge id="-E52" from="J63" to="J61" priority="-1">
        <lane id="-E52_0" index="0" speed="13.89" length="126.64" shape="202.02,342.69 228.00,451.90"/>
    </edge>
    <edge id="-E53" from="J64" to="J63" priority="-1">
        <lane id="-E53_0" index="0" speed="13.89" length="202.75" shape="1.08,380.98 191.44,336.16"/>
    </edge>
    <edge id="-E54" from="J65" to="J63" priority="-1">
        <lane id="-E54_0" index="0" speed="13.89" length="102.80" shape="177.19,235.56 198.74,328.72"/>
    </edge>
    <edge id="-E55" from="J66" to="J68" priority="-1">
        <lane id="-E55_0" index="0" speed="13.89" length="218.82" shape="-316.53,624.48 -520.06,692.76"/>
    </edge>
    <edge id="-E56" from="J67" to="J69" priority="-1">
        <lane id="-E56_0" index="0" speed="13.89" length="179.29" shape="-406.41,396.36 -560.67,456.89"/>
    </edge>
    <edge id="-E57" from="J71" to="J70" priority="-1">
        <lane id="-E57_0" index="0" speed="13.89" length="203.49" shape="-638.41,296.47 -460.13,233.21"/>
    </edge>
    <edge id="-E58" from="J72" to="J70" priority="-1">
        <lane id="-E58_0" index="0" speed="13.89" length="253.39" shape="-211.93,155.00 -432.04,227.01"/>
    </edge>
    <edge id="-E59" from="J73" to="J72" priority="-1">
        <lane id="-E59_0" index="0" speed="13.89" length="119.71" shape="-98.12,117.54 -198.21,150.50"/>
    </edge>
    <edge id="-E6" from="J8" to="J7" priority="-1">
        <lane id="-E6_0" index="0" speed="13.89" length="282.37" shape="301.03,1410.89 244.86,1148.13"/>
    </edge>
    <edge id="-E60" from="J74" to="J118" priority="-1">
        <lane id="-E60_0" index="0" speed="13.89" length="23.98" shape="46.80,65.74 30.78,71.64"/>
    </edge>
    <edge id="-E60.25" from="J118" to="J34" priority="-1">
        <lane id="-E60.25_0" index="0" speed="13.89" length="103.98" shape="17.23,76.55 -66.88,106.65"/>
    </edge>
    <edge id="-E600" from="J34" to="J73" priority="-1">
        <lane id="-E600_0" index="0" speed="13.89" length="18.47" shape="-80.47,111.48 -84.50,112.90"/>
    </edge>
    <edge id="-E61" from="J75" to="J73" priority="-1">
        <lane id="-E61_0" index="0" speed="13.89" length="82.96" shape="-72.54,194.47 -91.28,121.29"/>
    </edge>
    <edge id="-E62" from="J76" to="J72" priority="-1">
        <lane id="-E62_0" index="0" speed="13.89" length="262.25" shape="-306.27,-82.80 -206.83,143.60"/>
    </edge>
    <edge id="-E63" from="J78" to="J77" priority="-1">
        <lane id="-E63_0" index="0" speed="13.89" length="174.83" shape="-785.77,-190.94 -635.03,-245.37"/>
    </edge>
    <edge id="-E64" from="J79" to="J77" priority="-1">
        <lane id="-E64_0" index="0" speed="13.89" length="214.70" shape="-425.11,-317.45 -606.85,-252.12"/>
    </edge>
    <edge id="-E65" from="J80" to="J38" priority="-1">
        <lane id="-E65_0" index="0" speed="13.89" length="30.24" shape="-280.61,-368.05 -302.36,-360.53"/>
    </edge>
    <edge id="-E650" from="J38" to="J79" priority="-1">
        <lane id="-E650_0" index="0" speed="13.89" length="115.55" shape="-316.01,-355.79 -411.12,-322.42"/>
    </edge>
    <edge id="-E66" from="J81" to="J79" priority="-1">
        <lane id="-E66_0" index="0" speed="13.89" length="156.33" shape="-473.41,-460.45 -420.02,-328.84"/>
    </edge>
    <edge id="-E67" from="J82" to="J81" priority="-1">
        <lane id="-E67_0" index="0" speed="13.89" length="57.08" shape="-532.31,-450.25 -485.08,-465.54"/>
    </edge>
    <edge id="-E68" from="J83" to="J79" priority="-1">
        <lane id="-E68_0" index="0" speed="13.89" length="121.67" shape="-372.05,-217.13 -417.03,-313.94"/>
    </edge>
    <edge id="-E69" from="J84" to="J83" priority="-1">
        <lane id="-E69_0" index="0" speed="13.89" length="58.42" shape="-422.38,-191.04 -374.95,-209.86"/>
    </edge>
    <edge id="-E7" from="J12" to="J11" priority="-1">
        <lane id="-E7_0" index="0" speed="13.89" length="276.80" shape="958.41,1247.92 898.60,991.62"/>
    </edge>
    <edge id="-E70" from="J76" to="J83" priority="-1">
        <lane id="-E70_0" index="0" speed="13.89" length="134.68" shape="-315.35,-95.10 -365.98,-204.06"/>
    </edge>
    <edge id="-E71" from="J87" to="J85" priority="-1" shape="-698.67,51.01 -534.04,-8.63">
        <lane id="-E71_0" index="0" speed="13.89" length="175.11" shape="-699.21,49.51 -547.38,-5.50"/>
    </edge>
    <edge id="-E72" from="J76" to="J86" priority="-1">
        <lane id="-E72_0" index="0" speed="13.89" length="235.88" shape="-317.26,-84.94 -519.49,-12.69"/>
    </edge>
    <edge id="-E73" from="J88" to="J36" priority="-1">
        <lane id="-E73_0" index="0" speed="13.89" length="27.51" shape="-126.66,-152.60 -145.69,-145.71"/>
    </edge>
    <edge id="-E730" from="J36" to="J76" priority="-1">
        <lane id="-E730_0" index="0" speed="13.89" length="167.23" shape="-159.28,-140.85 -303.18,-89.94"/>
    </edge>
    <edge id="-E74" from="J91" to="J89" priority="-1">
        <lane id="-E74_0" index="0" speed="13.89" length="147.74" shape="-867.95,-495.67 -742.16,-542.22"/>
    </edge>
    <edge id="-E75" from="J92" to="J90" priority="-1">
        <lane id="-E75_0" index="0" speed="13.89" length="202.25" shape="-542.51,-607.74 -714.27,-548.87"/>
    </edge>
    <edge id="-E76" from="J93" to="J40" priority="-1">
        <lane id="-E76_0" index="0" speed="13.89" length="95.83" shape="-328.26,-684.59 -411.45,-654.67"/>
    </edge>
    <edge id="-E76.96" from="J40" to="J92" priority="-1">
        <lane id="-E76.96_0" index="0" speed="13.89" length="124.74" shape="-425.41,-649.65 -528.31,-612.73"/>
    </edge>
    <edge id="-E77" from="J81" to="J92" priority="-1">
        <lane id="-E77_0" index="0" speed="13.89" length="156.70" shape="-481.79,-472.60 -535.11,-604.13"/>
    </edge>
    <edge id="-E78" from="J94" to="J92" priority="-1">
        <lane id="-E78_0" index="0" speed="13.89" length="126.82" shape="-549.56,-730.45 -535.78,-619.66"/>
    </edge>
    <edge id="-E79" from="J95" to="J94" priority="-1">
        <lane id="-E79_0" index="0" speed="13.89" length="54.82" shape="-606.66,-732.41 -559.38,-738.11"/>
    </edge>
    <edge id="-E8" from="J14" to="J11" priority="-1" shape="1613.08,792.08 1041.11,944.30 897.06,978.00">
        <lane id="-E8_0" index="0" speed="13.89" length="747.85" shape="1621.39,798.15 1043.05,952.06 905.89,984.15"/>
        <lane id="-E8_1" index="1" speed="13.89" length="747.85" shape="1620.56,795.06 1042.27,948.96 905.16,981.03"/>
        <lane id="-E8_2" index="2" speed="13.89" length="747.85" shape="1619.74,791.96 1041.50,945.85 904.43,977.92"/>
    </edge>
    <edge id="-E8.739" from="J11" to="J15" priority="-1" shape="897.06,978.00 822.40,995.76">
        <lane id="-E8.739_0" index="0" speed="13.89" length="83.44" shape="891.87,987.46 824.77,1003.42"/>
        <lane id="-E8.739_1" index="1" speed="13.89" length="83.44" shape="891.13,984.35 824.03,1000.31"/>
        <lane id="-E8.739_2" index="2" speed="13.89" length="83.44" shape="890.39,981.23 823.29,997.19"/>
    </edge>
    <edge id="-E8.821" from="J15" to="J22" priority="-1" shape="808.71,999.19 601.05,1048.34">
        <lane id="-E8.821_0" index="0" speed="13.89" length="220.88" shape="810.55,1006.97 609.68,1054.52"/>
        <lane id="-E8.821_1" index="1" speed="13.89" length="220.88" shape="809.82,1003.86 608.94,1051.40"/>
        <lane id="-E8.821_2" index="2" speed="13.89" length="220.88" shape="809.08,1000.75 608.21,1048.29"/>
    </edge>
    <edge id="-E80" from="J96" to="J94" priority="-1">
        <lane id="-E80_0" index="0" speed="13.89" length="118.19" shape="-563.59,-847.06 -551.31,-744.72"/>
    </edge>
    <edge id="-E81" from="J97" to="J45" priority="-1">
        <lane id="-E81_0" index="0" speed="13.89" length="117.07" shape="-310.57,-832.53 -420.02,-841.35"/>
    </edge>
    <edge id="-E810" from="J45" to="J96" priority="-1">
        <lane id="-E810_0" index="0" speed="13.89" length="139.44" shape="-434.37,-842.51 -558.36,-852.50"/>
    </edge>
    <edge id="-E82" from="J98" to="J122" priority="-1">
        <lane id="-E82_0" index="0" speed="13.89" length="36.32" shape="-564.48,-947.79 -564.50,-918.67"/>
    </edge>
    <edge id="-E820" from="J122" to="J96" priority="-1">
        <lane id="-E820_0" index="0" speed="13.89" length="56.74" shape="-564.50,-904.27 -564.52,-861.68"/>
    </edge>
    <edge id="-E83" from="J45" to="J99" priority="-1">
        <lane id="-E83_0" index="0" speed="13.89" length="55.57" shape="-427.99,-850.92 -423.15,-898.98"/>
    </edge>
    <edge id="-E84" from="J101" to="J102" priority="-1" shape="188.59,-945.85 -649.57,-1006.05">
        <lane id="-E84_0" index="0" speed="13.89" length="894.89" shape="194.24,-937.42 -680.24,-1000.23"/>
        <lane id="-E84_1" index="1" speed="13.89" length="894.89" shape="194.47,-940.62 -680.01,-1003.42"/>
        <lane id="-E84_2" index="2" speed="13.89" length="894.89" shape="194.70,-943.81 -679.78,-1006.62"/>
    </edge>
    <edge id="-E84.1081" from="J107" to="J104" priority="-1" shape="-855.13,-1020.94 -868.08,-1021.93 -924.11,-1025.91">
        <lane id="-E84.1081_0" index="0" speed="13.89" length="111.56" shape="-845.74,-1012.20 -868.67,-1013.95 -932.20,-1018.46"/>
        <lane id="-E84.1081_1" index="1" speed="13.89" length="111.56" shape="-845.50,-1015.39 -868.43,-1017.14 -931.98,-1021.66"/>
        <lane id="-E84.1081_2" index="2" speed="13.89" length="111.56" shape="-845.25,-1018.58 -868.20,-1020.33 -931.75,-1024.85"/>
    </edge>
    <edge id="-E84.1162" from="J104" to="J117" priority="-1">
        <lane id="-E84.1162_0" index="0" speed="13.89" length="98.01" shape="-946.92,-1019.62 -1020.55,-1025.22"/>
        <lane id="-E84.1162_1" index="1" speed="13.89" length="98.01" shape="-946.68,-1022.81 -1020.31,-1028.41"/>
        <lane id="-E84.1162_2" index="2" speed="13.89" length="98.01" shape="-946.43,-1026.00 -1020.06,-1031.60"/>
    </edge>
    <edge id="-E84.1162.142" from="J117" to="J100" priority="-1" shape="-1065.83,-1036.69 -1381.23,-1060.69">
        <lane id="-E84.1162.142_0" index="0" speed="13.89" length="362.76" shape="-1042.85,-1026.92 -1387.90,-1053.17"/>
        <lane id="-E84.1162.142_1" index="1" speed="13.89" length="362.76" shape="-1042.61,-1030.11 -1387.65,-1056.36"/>
        <lane id="-E84.1162.142_2" index="2" speed="13.89" length="362.76" shape="-1042.36,-1033.30 -1387.41,-1059.56"/>
    </edge>
    <edge id="-E84.881" from="J102" to="J107" priority="-1">
        <lane id="-E84.881_0" index="0" speed="13.89" length="149.89" shape="-705.63,-1002.09 -829.97,-1011.10"/>
        <lane id="-E84.881_1" index="1" speed="13.89" length="149.89" shape="-705.40,-1005.28 -829.74,-1014.29"/>
        <lane id="-E84.881_2" index="2" speed="13.89" length="149.89" shape="-705.17,-1008.47 -829.51,-1017.48"/>
    </edge>
    <edge id="-E93" from="J119" to="J118" priority="-1">
        <lane id="-E93_0" index="0" speed="13.89" length="82.89" shape="42.98,153.16 24.08,80.18"/>
    </edge>
    <edge id="-E94" from="J120" to="J38" priority="-1">
        <lane id="-E94_0" index="0" speed="13.89" length="55.52" shape="-293.39,-306.60 -308.90,-352.33"/>
    </edge>
    <edge id="-E95" from="J121" to="J40" priority="-1">
        <lane id="-E95_0" index="0" speed="13.89" length="54.83" shape="-405.45,-600.50 -418.47,-646.09"/>
    </edge>
    <edge id="-E96" from="J123" to="J122" priority="-1">
        <lane id="-E96_0" index="0" speed="13.89" length="51.38" shape="-617.48,-913.07 -573.30,-913.07"/>
    </edge>
    <edge id="E0" from="J20" to="J0" priority="-1">
        <lane id="E0_0" index="0" speed="13.89" length="275.55" shape="370.96,1086.23 315.45,838.36"/>
    </edge>
    <edge id="E1" from="J15" to="J1" priority="-1">
        <lane id="E1_0" index="0" speed="13.89" length="277.55" shape="810.87,982.88 752.18,733.98"/>
    </edge>
    <edge id="E10" from="J22" to="J23" priority="-1">
        <lane id="E10_0" index="0" speed="13.89" length="279.73" shape="605.45,1061.38 660.61,1321.66"/>
    </edge>
    <edge id="E11" from="J17" to="J24" priority="-1">
        <lane id="E11_0" index="0" speed="13.89" length="274.66" shape="596.13,1034.36 538.63,787.10"/>
    </edge>
    <edge id="E12" from="J13" to="J19" priority="-1">
        <lane id="E12_0" index="0" speed="13.89" length="272.87" shape="1282.19,863.67 1246.20,610.93"/>
    </edge>
    <edge id="E13" from="J2" to="J21" priority="-1">
        <lane id="E13_0" index="0" speed="13.89" length="134.27" shape="981.60,669.42 1098.16,641.47"/>
    </edge>
    <edge id="E13.134" from="J21" to="J19" priority="-1">
        <lane id="E13.134_0" index="0" speed="13.89" length="145.80" shape="1112.16,638.10 1243.49,606.49"/>
    </edge>
    <edge id="E14" from="J21" to="J25" priority="-1">
        <lane id="E14_0" index="0" speed="13.89" length="48.62" shape="1108.76,647.98 1118.35,688.27"/>
    </edge>
    <edge id="E15" from="J1" to="J26" priority="-1">
        <lane id="E15_0" index="0" speed="13.89" length="119.54" shape="758.69,723.33 860.93,698.87"/>
    </edge>
    <edge id="E16" from="J26" to="J2" priority="-1">
        <lane id="E16_0" index="0" speed="13.89" length="109.79" shape="874.91,695.49 967.59,672.82"/>
    </edge>
    <edge id="E17" from="J26" to="J27" priority="-1">
        <lane id="E17_0" index="0" speed="13.89" length="49.37" shape="871.52,705.42 881.05,746.48"/>
    </edge>