<?xml version="1.0" encoding="UTF-8"?>

<!-- generated on 2023-11-30 15:09:38 by Eclipse SUMO netedit Version 1.19.0
<configuration xmlns:xsi="http://www.w3.org/2001/XMLSchema-instance" xsi:noNamespaceSchemaLocation="http://sumo.dlr.de/xsd/neteditConfiguration.xsd">

    <input>
        <additional-files value="taz.add.xml"/>
        <sumo-net-file value="basic.net.xml"/>
    </input>

    <output>
        <output-file value="basic.net.xml"/>
    </output>

    <processing>
        <geometry.min-radius.fix.railways value="false"/>
        <geometry.max-grade.fix value="false"/>
        <offset.disable-normalization value="true"/>
        <lefthand value="0"/>
    </processing>

    <tls_building>
        <tls.cycle.time value="60"/>
    </tls_building>

    <junctions>
        <no-turnarounds value="true"/>
        <junctions.corner-detail value="20"/>
        <junctions.internal-link-detail value="30"/>
        <junctions.limit-turn-speed value="5.50"/>
        <rectangular-lane-cut value="0"/>
    </junctions>

    <pedestrian>
        <walkingareas value="0"/>
    </pedestrian>

    <visualisation>
        <gui-settings-file value="background/background_config.xml"/>
    </visualisation>

</configuration>
-->

<net version="1.16" junctionCornerDetail="20" junctionLinkDetail="30" limitTurnSpeed="5.50" xmlns:xsi="http://www.w3.org/2001/XMLSchema-instance" xsi:noNamespaceSchemaLocation="http://sumo.dlr.de/xsd/net_file.xsd">

    <location netOffset="0.00,0.00" convBoundary="-1387.22,-1511.96,1618.93,1632.95" origBoundary="-10000000000.00,-10000000000.00,10000000000.00,10000000000.00" projParameter="!"/>

    <edge id=":J0_0" function="internal">
        <lane id=":J0_0_0" index="0" speed="11.11" length="12.97" width="3.00" shape="-523.08,-288.70 -522.46,-288.92 -521.86,-289.10 -521.29,-289.25 -520.75,-289.38 -520.22,-289.48 -519.72,-289.56 -519.23,-289.62 -518.77,-289.66 -518.31,-289.69 -517.88,-289.70 -517.45,-289.70 -517.04,-289.69 -516.63,-289.68 -516.23,-289.65 -515.84,-289.63 -515.46,-289.61 -515.07,-289.58 -514.69,-289.56 -514.30,-289.55 -513.92,-289.54 -513.53,-289.55 -513.13,-289.56 -512.73,-289.59 -512.32,-289.64 -511.90,-289.70 -511.47,-289.79 -511.02,-289.90 -510.56,-290.03 -510.08,-290.19"/>
        <lane id=":J0_0_1" index="1" speed="11.11" length="12.97" width="3.00" shape="-522.07,-285.88 -510.08,-290.19"/>
    </edge>
    <edge id=":J1_0" function="internal">
        <lane id=":J1_0_0" index="0" speed="6.42" length="8.93" width="3.00" shape="749.31,734.48 749.22,734.12 749.12,733.77 749.00,733.44 748.88,733.13 748.75,732.83 748.61,732.55 748.46,732.28 748.30,732.03 748.13,731.79 747.95,731.57 747.76,731.37 747.56,731.18 747.35,731.01 747.14,730.86 746.91,730.72 746.67,730.60 746.42,730.49 746.16,730.40 745.90,730.32 745.62,730.26 745.33,730.22 745.04,730.19 744.73,730.18 744.42,730.18 744.09,730.20 743.75,730.24 743.41,730.29 743.05,730.36 742.69,730.44"/>
    </edge>
    <edge id=":J1_1" function="internal">
        <lane id=":J1_1_0" index="0" speed="9.67" length="21.20" width="3.00" shape="749.31,734.48 749.15,733.72 749.02,732.97 748.94,732.24 748.90,731.53 748.89,730.83 748.93,730.16 749.01,729.51 749.12,728.87 749.28,728.26 749.47,727.66 749.71,727.08 749.98,726.52 750.30,725.98 750.65,725.45 751.05,724.95 751.48,724.46 751.96,724.00 752.47,723.55 753.02,723.12 753.62,722.71 754.25,722.32 754.92,721.95 755.63,721.59 756.39,721.26 757.18,720.94 758.01,720.65 758.88,720.37 759.79,720.11 760.75,719.87"/>
        <lane id=":J1_1_1" index="1" speed="8.55" length="16.36" width="3.00" shape="752.23,733.80 752.11,733.23 752.02,732.67 751.96,732.13 751.94,731.60 751.94,731.09 751.98,730.58 752.05,730.10 752.15,729.62 752.28,729.16 752.44,728.71 752.63,728.28 752.86,727.86 753.11,727.45 753.40,727.06 753.71,726.68 754.06,726.31 754.44,725.96 754.85,725.62 755.30,725.30 755.77,724.99 756.28,724.69 756.81,724.40 757.38,724.13 757.98,723.87 758.61,723.63 759.27,723.40 759.96,723.18 760.69,722.97 761.44,722.78"/>
    </edge>
    <edge id=":J1_3" function="internal">
        <lane id=":J1_3_0" index="0" speed="6.49" length="9.01" width="3.00" shape="762.14,725.70 761.78,725.80 761.43,725.90 761.10,726.01 760.79,726.13 760.49,726.27 760.21,726.41 759.94,726.56 759.69,726.72 759.46,726.90 759.24,727.08 759.03,727.27 758.85,727.47 758.68,727.68 758.52,727.91 758.38,728.14 758.25,728.38 758.15,728.63 758.05,728.89 757.98,729.16 757.91,729.44 757.87,729.74 757.84,730.04 757.83,730.35 757.83,730.67 757.84,731.00 757.88,731.34 757.93,731.69 757.99,732.05 758.07,732.42"/>
    </edge>
    <edge id=":J1_4" function="internal">
        <lane id=":J1_4_0" index="0" speed="11.11" length="20.02" width="3.00" shape="762.14,725.70 742.69,730.44"/>
    </edge>
    <edge id=":J1_5" function="internal">
        <lane id=":J1_5_0" index="0" speed="11.11" length="20.06" width="3.00" shape="741.24,724.62 760.75,719.87"/>
        <lane id=":J1_5_1" index="1" speed="11.11" length="20.06" width="3.00" shape="741.96,727.53 761.44,722.78"/>
    </edge>
    <edge id=":J1_7" function="internal">
        <lane id=":J1_7_0" index="0" speed="8.50" length="5.33" width="3.00" shape="741.96,727.53 742.73,727.35 743.47,727.20 744.19,727.07 744.88,726.97 745.56,726.90 746.21,726.85 746.84,726.83 747.24,726.84"/>
    </edge>
    <edge id=":J1_8" function="internal">
        <lane id=":J1_8_0" index="0" speed="8.50" length="11.04" width="3.00" shape="747.24,726.84 747.45,726.84 748.04,726.87 748.60,726.93 749.14,727.02 749.66,727.13 750.16,727.27 750.64,727.44 751.09,727.63 751.53,727.85 751.94,728.09 752.33,728.36 752.69,728.66 753.04,728.99 753.36,729.34 753.66,729.72 753.94,730.12 754.20,730.55 754.43,731.01 754.64,731.50 754.84,732.01 755.00,732.55 755.15,733.11"/>
    </edge>
    <edge id=":J104_0" function="internal">
        <lane id=":J104_0_0" index="0" speed="6.44" length="8.93" width="3.00" shape="582.46,988.36 582.37,987.99 582.27,987.65 582.15,987.32 582.03,987.00 581.90,986.70 581.76,986.42 581.62,986.15 581.46,985.90 581.29,985.67 581.11,985.45 580.92,985.24 580.72,985.05 580.51,984.88 580.29,984.72 580.07,984.58 579.83,984.46 579.58,984.35 579.33,984.25 579.06,984.18 578.78,984.11 578.50,984.07 578.20,984.03 577.89,984.02 577.58,984.02 577.25,984.04 576.92,984.07 576.57,984.12 576.22,984.18 575.85,984.26"/>
    </edge>
    <edge id=":J104_1" function="internal">
        <lane id=":J104_1_0" index="0" speed="11.11" length="14.03" width="3.00" shape="582.46,988.36 579.26,974.70"/>
        <lane id=":J104_1_1" index="1" speed="11.11" length="14.03" width="3.00" shape="585.38,987.68 582.18,974.01"/>
    </edge>
    <edge id=":J104_3" function="internal">
        <lane id=":J104_3_0" index="0" speed="7.92" length="9.82" width="3.00" shape="585.38,987.68 585.26,987.11 585.16,986.56 585.09,986.03 585.04,985.51 585.02,985.01 585.02,984.52 585.04,984.04 585.09,983.58 585.16,983.14 585.26,982.71 585.38,982.30 585.53,981.90 585.70,981.51 585.89,981.14 586.11,980.79 586.36,980.45 586.62,980.12 586.91,979.81 587.23,979.52 587.57,979.24 587.93,978.97 588.02,978.92"/>
    </edge>
    <edge id=":J104_10" function="internal">
        <lane id=":J104_10_0" index="0" speed="7.92" length="4.02" width="3.00" shape="588.02,978.92 588.32,978.72 588.74,978.49 589.17,978.27 589.63,978.06 590.12,977.87 590.63,977.70 591.16,977.54 591.72,977.39"/>
    </edge>
    <edge id=":J104_4" function="internal">
        <lane id=":J104_4_0" index="0" speed="11.11" length="17.04" width="3.00" shape="592.43,980.31 575.85,984.26"/>
    </edge>
    <edge id=":J104_5" function="internal">
        <lane id=":J104_5_0" index="0" speed="7.87" length="13.82" width="3.00" shape="592.43,980.31 591.86,980.43 591.31,980.54 590.78,980.61 590.26,980.67 589.76,980.69 589.27,980.70 588.79,980.68 588.33,980.63 587.89,980.56 587.46,980.47 587.05,980.35 586.65,980.20 586.27,980.03 585.90,979.84 585.55,979.62 585.21,979.38 584.88,979.12 584.58,978.83 584.28,978.51 584.01,978.17 583.74,977.81 583.50,977.42 583.26,977.00 583.05,976.57 582.84,976.10 582.66,975.62 582.48,975.11 582.33,974.57 582.18,974.01"/>
    </edge>
    <edge id=":J104_6" function="internal">
        <lane id=":J104_6_0" index="0" speed="6.44" length="8.93" width="3.00" shape="585.11,973.32 585.20,973.69 585.30,974.03 585.41,974.36 585.53,974.68 585.66,974.98 585.80,975.26 585.95,975.53 586.11,975.78 586.28,976.01 586.46,976.23 586.65,976.43 586.85,976.62 587.06,976.79 587.28,976.95 587.50,977.09 587.74,977.22 587.99,977.32 588.25,977.42 588.51,977.49 588.79,977.56 589.08,977.60 589.37,977.63 589.68,977.64 590.00,977.64 590.32,977.62 590.66,977.59 591.00,977.54 591.36,977.47 591.72,977.39"/>
    </edge>
    <edge id=":J104_7" function="internal">
        <lane id=":J104_7_0" index="0" speed="8.53" length="3.37" width="3.00" shape="585.11,973.32 585.22,973.89 585.31,974.44 585.37,974.98 585.39,975.50 585.39,976.02 585.35,976.51 585.33,976.67"/>
    </edge>
    <edge id=":J104_11" function="internal">
        <lane id=":J104_11_0" index="0" speed="8.53" length="12.95" width="3.00" shape="585.33,976.67 585.28,977.00 585.18,977.47 585.05,977.93 584.88,978.37 584.69,978.80 584.47,979.22 584.21,979.62 583.92,980.01 583.60,980.39 583.25,980.75 582.87,981.10 582.46,981.44 582.01,981.76 581.54,982.07 581.03,982.37 580.49,982.65 579.92,982.92 579.32,983.18 578.69,983.42 578.03,983.65 577.33,983.87 576.61,984.07 575.85,984.26"/>
    </edge>
    <edge id=":J104_8" function="internal">
        <lane id=":J104_8_0" index="0" speed="6.46" length="8.96" width="3.00" shape="575.16,981.34 575.53,981.25 575.87,981.15 576.20,981.03 576.52,980.91 576.82,980.78 577.10,980.64 577.37,980.49 577.62,980.33 577.85,980.16 578.07,979.98 578.28,979.79 578.47,979.59 578.64,979.38 578.80,979.16 578.94,978.93 579.06,978.69 579.17,978.44 579.27,978.18 579.35,977.92 579.41,977.64 579.46,977.35 579.49,977.05 579.50,976.74 579.50,976.43 579.49,976.10 579.45,975.76 579.41,975.42 579.34,975.06 579.26,974.70"/>
    </edge>
    <edge id=":J104_9" function="internal">
        <lane id=":J104_9_0" index="0" speed="11.11" length="17.02" width="3.00" shape="575.16,981.34 591.72,977.39"/>
    </edge>
    <edge id=":J106_0" function="internal">
        <lane id=":J106_0_0" index="0" speed="6.42" length="8.93" width="3.00" shape="135.18,1094.91 135.10,1094.55 135.00,1094.20 134.89,1093.87 134.77,1093.55 134.64,1093.25 134.51,1092.97 134.36,1092.70 134.20,1092.45 134.03,1092.21 133.86,1091.99 133.67,1091.79 133.47,1091.60 133.26,1091.43 133.05,1091.27 132.82,1091.13 132.58,1091.00 132.34,1090.89 132.08,1090.80 131.81,1090.72 131.54,1090.66 131.25,1090.62 130.95,1090.59 130.65,1090.57 130.33,1090.57 130.01,1090.59 129.67,1090.63 129.33,1090.68 128.97,1090.74 128.60,1090.82"/>
    </edge>
    <edge id=":J106_1" function="internal">
        <lane id=":J106_1_0" index="0" speed="11.11" length="14.12" width="3.00" shape="135.18,1094.91 132.09,1081.14"/>
        <lane id=":J106_1_1" index="1" speed="11.11" length="14.12" width="3.00" shape="138.11,1094.26 135.02,1080.48"/>
    </edge>
    <edge id=":J106_3" function="internal">
        <lane id=":J106_3_0" index="0" speed="7.92" length="9.88" width="3.00" shape="138.11,1094.26 137.99,1093.69 137.90,1093.13 137.83,1092.59 137.79,1092.07 137.77,1091.56 137.77,1091.07 137.80,1090.59 137.85,1090.12 137.92,1089.68 138.02,1089.25 138.15,1088.83 138.30,1088.43 138.47,1088.04 138.67,1087.67 138.89,1087.32 139.13,1086.98 139.40,1086.65 139.69,1086.34 140.01,1086.05 140.35,1085.77 140.72,1085.51 140.81,1085.45"/>
    </edge>
    <edge id=":J106_10" function="internal">
        <lane id=":J106_10_0" index="0" speed="7.92" length="4.02" width="3.00" shape="140.81,1085.45 141.11,1085.26 141.52,1085.03 141.96,1084.81 142.43,1084.61 142.91,1084.43 143.42,1084.26 143.96,1084.10 144.52,1083.96"/>
    </edge>
    <edge id=":J106_4" function="internal">
        <lane id=":J106_4_0" index="0" speed="11.11" length="17.05" width="3.00" shape="145.19,1086.89 128.60,1090.82"/>
    </edge>
    <edge id=":J106_5" function="internal">
        <lane id=":J106_5_0" index="0" speed="7.87" length="13.81" width="3.00" shape="145.19,1086.89 144.63,1087.01 144.08,1087.10 143.54,1087.17 143.02,1087.22 142.52,1087.24 142.03,1087.24 141.56,1087.21 141.10,1087.16 140.66,1087.09 140.23,1086.99 139.82,1086.87 139.42,1086.72 139.04,1086.55 138.67,1086.35 138.32,1086.13 137.99,1085.88 137.67,1085.62 137.36,1085.32 137.07,1085.00 136.80,1084.66 136.54,1084.29 136.30,1083.90 136.07,1083.49 135.85,1083.05 135.66,1082.58 135.47,1082.10 135.31,1081.58 135.15,1081.05 135.02,1080.48"/>
    </edge>
    <edge id=":J106_6" function="internal">
        <lane id=":J106_6_0" index="0" speed="6.44" length="8.93" width="3.00" shape="137.94,1079.83 138.03,1080.19 138.13,1080.54 138.24,1080.87 138.36,1081.18 138.48,1081.48 138.62,1081.77 138.77,1082.04 138.93,1082.29 139.09,1082.53 139.27,1082.75 139.46,1082.95 139.66,1083.14 139.86,1083.32 140.08,1083.47 140.31,1083.62 140.54,1083.74 140.79,1083.86 141.05,1083.95 141.31,1084.03 141.59,1084.09 141.88,1084.14 142.17,1084.18 142.48,1084.19 142.79,1084.19 143.12,1084.18 143.45,1084.15 143.80,1084.10 144.15,1084.04 144.52,1083.96"/>
    </edge>
    <edge id=":J106_7" function="internal">
        <lane id=":J106_7_0" index="0" speed="8.59" length="3.36" width="3.00" shape="137.94,1079.83 138.06,1080.39 138.14,1080.94 138.19,1081.48 138.21,1082.01 138.20,1082.52 138.16,1083.02 138.13,1083.17"/>
    </edge>
    <edge id=":J106_11" function="internal">
        <lane id=":J106_11_0" index="0" speed="8.59" length="13.02" width="3.00" shape="138.13,1083.17 138.08,1083.50 137.98,1083.97 137.84,1084.43 137.68,1084.88 137.48,1085.31 137.25,1085.73 136.99,1086.13 136.70,1086.53 136.38,1086.91 136.02,1087.27 135.64,1087.62 135.22,1087.96 134.78,1088.29 134.30,1088.60 133.79,1088.90 133.25,1089.19 132.68,1089.46 132.08,1089.72 131.45,1089.97 130.78,1090.20 130.09,1090.42 129.36,1090.63 128.60,1090.82"/>
    </edge>
    <edge id=":J106_8" function="internal">
        <lane id=":J106_8_0" index="0" speed="6.55" length="9.10" width="3.00" shape="127.90,1087.91 128.26,1087.81 128.61,1087.71 128.95,1087.59 129.27,1087.47 129.57,1087.33 129.86,1087.19 130.13,1087.03 130.38,1086.87 130.62,1086.70 130.84,1086.51 131.05,1086.32 131.24,1086.11 131.42,1085.90 131.58,1085.68 131.73,1085.44 131.85,1085.20 131.97,1084.95 132.06,1084.68 132.15,1084.41 132.21,1084.13 132.26,1083.84 132.30,1083.53 132.31,1083.22 132.32,1082.90 132.30,1082.57 132.27,1082.23 132.23,1081.88 132.17,1081.51 132.09,1081.14"/>
    </edge>
    <edge id=":J106_9" function="internal">
        <lane id=":J106_9_0" index="0" speed="11.11" length="17.08" width="3.00" shape="127.90,1087.91 144.52,1083.96"/>
    </edge>
    <edge id=":J108_0" function="internal">
        <lane id=":J108_0_0" index="0" speed="6.46" length="8.93" width="3.00" shape="142.01,881.17 141.92,880.81 141.82,880.46 141.70,880.13 141.58,879.82 141.45,879.52 141.31,879.24 141.16,878.97 141.00,878.72 140.83,878.49 140.65,878.27 140.46,878.07 140.26,877.88 140.05,877.71 139.83,877.55 139.60,877.41 139.36,877.29 139.11,877.18 138.85,877.08 138.59,877.01 138.31,876.94 138.02,876.90 137.73,876.87 137.42,876.85 137.11,876.85 136.78,876.87 136.45,876.90 136.10,876.95 135.75,877.02 135.38,877.10"/>
    </edge>
    <edge id=":J108_1" function="internal">
        <lane id=":J108_1_0" index="0" speed="8.50" length="16.30" width="3.00" shape="142.01,881.17 141.84,880.41 141.70,879.67 141.58,878.95 141.48,878.26 141.41,877.59 141.37,876.94 141.36,876.31 141.37,875.70 141.41,875.12 141.47,874.55 141.56,874.01 141.67,873.50 141.82,873.00 141.98,872.52 142.18,872.07 142.40,871.64 142.65,871.23 142.92,870.85 143.22,870.48 143.54,870.14 143.89,869.82 144.27,869.52 144.67,869.25 145.10,868.99 145.56,868.76 146.04,868.55 146.55,868.36 147.08,868.20 147.64,868.05"/>
    </edge>
    <edge id=":J108_2" function="internal">
        <lane id=":J108_2_0" index="0" speed="7.20" length="11.44" width="3.00" shape="148.32,870.98 147.96,871.07 147.61,871.18 147.29,871.31 146.98,871.45 146.69,871.61 146.41,871.79 146.16,871.98 145.92,872.20 145.70,872.42 145.49,872.67 145.30,872.93 145.14,873.20 144.98,873.50 144.85,873.81 144.73,874.14 144.63,874.48 144.55,874.84 144.49,875.22 144.44,875.61 144.41,876.02 144.40,876.45 144.40,876.89 144.43,877.36 144.47,877.83 144.52,878.33 144.60,878.84 144.69,879.36 144.80,879.91 144.93,880.47"/>
    </edge>
    <edge id=":J108_3" function="internal">
        <lane id=":J108_3_0" index="0" speed="11.11" length="14.00" width="3.00" shape="148.32,870.98 134.69,874.18"/>
    </edge>
    <edge id=":J108_4" function="internal">
        <lane id=":J108_4_0" index="0" speed="11.11" length="14.03" width="3.00" shape="133.30,868.34 146.97,865.13"/>
        <lane id=":J108_4_1" index="1" speed="11.11" length="14.03" width="3.00" shape="133.99,871.26 147.64,868.05"/>
    </edge>
    <edge id=":J108_6" function="internal">
        <lane id=":J108_6_0" index="0" speed="8.52" length="3.38" width="3.00" shape="133.99,871.26 134.56,871.14 135.11,871.05 135.64,870.99 136.16,870.97 136.67,870.97 137.17,871.01 137.34,871.03"/>
    </edge>
    <edge id=":J108_7" function="internal">
        <lane id=":J108_7_0" index="0" speed="8.52" length="12.92" width="3.00" shape="137.34,871.03 137.65,871.08 138.12,871.18 138.58,871.31 139.02,871.47 139.45,871.66 139.87,871.88 140.27,872.14 140.67,872.42 141.04,872.74 141.41,873.09 141.76,873.47 142.09,873.88 142.42,874.32 142.73,874.80 143.03,875.30 143.31,875.84 143.58,876.41 143.84,877.01 144.08,877.64 144.32,878.30 144.53,878.99 144.74,879.71 144.93,880.47"/>
    </edge>
    <edge id=":J11_0" function="internal">
        <lane id=":J11_0_0" index="0" speed="6.57" length="9.32" width="3.75" shape="899.53,997.24 899.43,996.85 899.32,996.47 899.21,996.11 899.08,995.77 898.94,995.45 898.80,995.14 898.64,994.84 898.47,994.57 898.30,994.31 898.12,994.07 897.92,993.85 897.72,993.64 897.51,993.45 897.28,993.27 897.05,993.12 896.81,992.98 896.56,992.85 896.30,992.75 896.03,992.66 895.75,992.59 895.46,992.53 895.16,992.49 894.86,992.47 894.54,992.47 894.21,992.48 893.87,992.51 893.53,992.55 893.17,992.62 892.81,992.70"/>
    </edge>
    <edge id=":J11_1" function="internal">
        <lane id=":J11_1_0" index="0" speed="6.65" length="9.23" width="3.00" shape="906.44,989.55 906.08,989.65 905.74,989.75 905.41,989.87 905.10,989.99 904.80,990.13 904.52,990.28 904.26,990.44 904.01,990.60 903.78,990.78 903.56,990.97 903.36,991.17 903.17,991.38 903.00,991.60 902.85,991.83 902.71,992.08 902.59,992.33 902.49,992.59 902.40,992.86 902.32,993.15 902.26,993.44 902.22,993.74 902.19,994.06 902.18,994.39 902.19,994.72 902.21,995.07 902.25,995.42 902.30,995.79 902.37,996.17 902.45,996.56"/>
    </edge>
    <edge id=":J11_2" function="internal">
        <lane id=":J11_2_0" index="0" speed="16.67" length="13.97" width="3.75" shape="906.44,989.55 892.81,992.70"/>
        <lane id=":J11_2_1" index="1" speed="16.67" length="13.97" width="3.75" shape="905.55,985.91 891.94,989.05"/>
        <lane id=":J11_2_2" index="2" speed="16.67" length="13.97" width="3.75" shape="904.66,982.27 891.07,985.40"/>
    </edge>
    <edge id=":J111_0" function="internal">
        <lane id=":J111_0_0" index="0" speed="6.45" length="8.93" width="3.00" shape="796.83,936.61 796.74,936.25 796.64,935.90 796.53,935.57 796.41,935.26 796.28,934.96 796.14,934.67 795.99,934.41 795.83,934.16 795.66,933.92 795.48,933.70 795.29,933.50 795.09,933.31 794.88,933.14 794.66,932.98 794.43,932.84 794.20,932.71 793.95,932.60 793.69,932.51 793.42,932.43 793.15,932.37 792.86,932.32 792.57,932.29 792.26,932.28 791.94,932.28 791.62,932.29 791.28,932.32 790.94,932.37 790.58,932.43 790.22,932.51"/>
    </edge>
    <edge id=":J111_1" function="internal">
        <lane id=":J111_1_0" index="0" speed="11.11" length="14.06" width="3.00" shape="796.83,936.61 793.62,922.92"/>
        <lane id=":J111_1_1" index="1" speed="11.11" length="14.06" width="3.00" shape="799.75,935.92 796.54,922.24"/>
    </edge>
    <edge id=":J111_3" function="internal">
        <lane id=":J111_3_0" index="0" speed="9.17" length="3.02" width="3.00" shape="799.75,935.92 799.64,935.36 799.56,934.80 799.52,934.26 799.52,933.73 799.56,933.21 799.60,932.93"/>
    </edge>
    <edge id=":J111_15" function="internal">
        <lane id=":J111_15_0" index="0" speed="9.17" length="15.93" width="3.00" shape="799.60,932.93 799.64,932.71 799.75,932.21 799.90,931.73 800.09,931.26 800.32,930.80 800.59,930.35 800.89,929.91 801.23,929.48 801.62,929.07 802.04,928.67 802.49,928.28 802.99,927.90 803.52,927.53 804.09,927.17 804.70,926.83 805.35,926.50 806.04,926.17 806.76,925.86 807.53,925.57 808.33,925.28 809.17,925.00 810.04,924.74 810.96,924.49 811.91,924.25"/>
    </edge>
    <edge id=":J111_4" function="internal">
        <lane id=":J111_4_0" index="0" speed="6.49" length="9.00" width="3.00" shape="812.62,927.16 812.25,927.26 811.91,927.36 811.58,927.48 811.26,927.60 810.96,927.73 810.68,927.88 810.41,928.03 810.16,928.19 809.92,928.36 809.70,928.55 809.50,928.74 809.31,928.94 809.13,929.15 808.98,929.37 808.84,929.60 808.71,929.84 808.60,930.09 808.51,930.35 808.43,930.62 808.37,930.90 808.32,931.19 808.29,931.49 808.27,931.80 808.27,932.12 808.29,932.45 808.32,932.79 808.37,933.14 808.43,933.49 808.51,933.86"/>
    </edge>
    <edge id=":J111_5" function="internal">
        <lane id=":J111_5_0" index="0" speed="11.11" length="23.03" width="3.00" shape="812.62,927.16 790.22,932.51"/>
    </edge>
    <edge id=":J111_6" function="internal">
        <lane id=":J111_6_0" index="0" speed="9.13" length="18.96" width="3.00" shape="812.62,927.16 811.66,927.39 810.73,927.58 809.82,927.74 808.95,927.88 808.11,927.99 807.29,928.07 806.51,928.13 805.75,928.15 805.02,928.15 804.32,928.12 803.65,928.06 803.01,927.97 802.40,927.86 801.82,927.72 801.26,927.55 800.74,927.35 800.24,927.12 799.77,926.87 799.33,926.59 798.92,926.28 798.54,925.94 798.19,925.58 797.87,925.18 797.57,924.76 797.31,924.31 797.07,923.84 796.86,923.33 796.69,922.80 796.54,922.24"/>
    </edge>
    <edge id=":J111_7" function="internal">
        <lane id=":J111_7_0" index="0" speed="6.44" length="8.93" width="3.00" shape="805.30,920.18 805.39,920.54 805.49,920.89 805.60,921.22 805.72,921.53 805.85,921.83 805.99,922.11 806.14,922.38 806.30,922.63 806.47,922.87 806.65,923.08 806.84,923.29 807.04,923.48 807.25,923.65 807.47,923.80 807.70,923.95 807.93,924.07 808.18,924.18 808.44,924.27 808.71,924.35 808.98,924.41 809.27,924.45 809.57,924.48 809.87,924.50 810.19,924.50 810.51,924.48 810.85,924.44 811.19,924.39 811.55,924.33 811.91,924.25"/>
    </edge>
    <edge id=":J111_8" function="internal">
        <lane id=":J111_8_0" index="0" speed="11.11" length="14.06" width="3.00" shape="805.30,920.18 808.51,933.86"/>
        <lane id=":J111_8_1" index="1" speed="11.11" length="14.06" width="3.00" shape="802.38,920.86 805.59,934.55"/>
        <lane id=":J111_8_2" index="2" speed="11.11" length="14.06" width="3.00" shape="799.46,921.55 802.67,935.23"/>
    </edge>
    <edge id=":J111_11" function="internal">
        <lane id=":J111_11_0" index="0" speed="8.53" length="3.38" width="3.00" shape="799.46,921.55 799.58,922.12 799.66,922.67 799.72,923.21 799.75,923.74 799.74,924.25 799.70,924.75 799.68,924.91"/>
    </edge>
    <edge id=":J111_16" function="internal">
        <lane id=":J111_16_0" index="0" speed="8.53" length="12.96" width="3.00" shape="799.68,924.91 799.63,925.24 799.54,925.71 799.40,926.17 799.24,926.62 799.05,927.05 798.82,927.47 798.57,927.87 798.28,928.26 797.96,928.64 797.61,929.01 797.23,929.36 796.82,929.69 796.38,930.02 795.90,930.33 795.39,930.63 794.86,930.91 794.29,931.18 793.69,931.44 793.06,931.68 792.39,931.91 791.70,932.12 790.98,932.33 790.22,932.51"/>
    </edge>
    <edge id=":J111_12" function="internal">
        <lane id=":J111_12_0" index="0" speed="6.47" length="8.97" width="3.00" shape="789.53,929.59 789.89,929.50 790.24,929.40 790.57,929.29 790.88,929.17 791.18,929.04 791.46,928.89 791.73,928.74 791.98,928.58 792.22,928.41 792.44,928.23 792.64,928.04 792.83,927.84 793.00,927.63 793.16,927.41 793.30,927.18 793.42,926.94 793.53,926.69 793.63,926.43 793.70,926.16 793.77,925.88 793.81,925.59 793.84,925.29 793.86,924.98 793.86,924.67 793.84,924.34 793.81,924.00 793.76,923.65 793.70,923.29 793.62,922.92"/>
    </edge>
    <edge id=":J111_13" function="internal">
        <lane id=":J111_13_0" index="0" speed="11.11" length="23.01" width="3.00" shape="789.53,929.59 811.91,924.25"/>
    </edge>
    <edge id=":J111_14" function="internal">
        <lane id=":J111_14_0" index="0" speed="8.52" length="16.30" width="3.00" shape="789.53,929.59 790.29,929.43 791.03,929.28 791.75,929.17 792.44,929.07 793.12,929.01 793.77,928.97 794.40,928.96 795.00,928.97 795.59,929.01 796.15,929.07 796.69,929.16 797.21,929.28 797.71,929.42 798.19,929.59 798.64,929.79 799.07,930.01 799.48,930.25 799.87,930.52 800.23,930.82 800.57,931.15 800.90,931.50 801.19,931.87 801.47,932.28 801.73,932.70 801.96,933.16 802.17,933.64 802.36,934.14 802.53,934.68 802.67,935.23"/>
    </edge>
    <edge id=":J112_0" function="internal">
        <lane id=":J112_0_0" index="0" speed="6.41" length="8.93" width="3.00" shape="357.99,1041.76 357.90,1041.40 357.80,1041.05 357.70,1040.72 357.58,1040.40 357.45,1040.10 357.31,1039.82 357.16,1039.55 357.01,1039.30 356.84,1039.06 356.66,1038.84 356.47,1038.63 356.28,1038.45 356.07,1038.27 355.85,1038.12 355.62,1037.98 355.39,1037.85 355.14,1037.74 354.88,1037.65 354.62,1037.58 354.34,1037.51 354.06,1037.47 353.76,1037.44 353.45,1037.43 353.14,1037.43 352.81,1037.45 352.48,1037.49 352.13,1037.54 351.77,1037.61 351.41,1037.69"/>
    </edge>
    <edge id=":J112_1" function="internal">
        <lane id=":J112_1_0" index="0" speed="11.11" length="14.22" width="3.00" shape="357.99,1041.76 354.87,1027.90"/>
        <lane id=":J112_1_1" index="1" speed="11.11" length="14.22" width="3.00" shape="360.92,1041.10 357.79,1027.23"/>
    </edge>
    <edge id=":J112_3" function="internal">
        <lane id=":J112_3_0" index="0" speed="9.22" length="3.06" width="3.00" shape="360.92,1041.10 360.81,1040.53 360.73,1039.97 360.70,1039.42 360.70,1038.88 360.74,1038.36 360.79,1038.07"/>
    </edge>
    <edge id=":J112_14" function="internal">
        <lane id=":J112_14_0" index="0" speed="9.22" length="16.01" width="3.00" shape="360.79,1038.07 360.82,1037.84 360.94,1037.34 361.10,1036.85 361.29,1036.38 361.52,1035.91 361.79,1035.46 362.10,1035.02 362.44,1034.59 362.83,1034.17 363.25,1033.76 363.71,1033.37 364.21,1032.99 364.74,1032.62 365.32,1032.26 365.93,1031.92 366.58,1031.59 367.27,1031.26 368.00,1030.96 368.76,1030.66 369.56,1030.37 370.40,1030.10 371.28,1029.84 372.20,1029.59 373.15,1029.35"/>
    </edge>
    <edge id=":J112_4" function="internal">
        <lane id=":J112_4_0" index="0" speed="6.56" length="9.17" width="3.00" shape="373.85,1032.27 373.48,1032.37 373.13,1032.47 372.80,1032.58 372.48,1032.71 372.18,1032.84 371.90,1032.99 371.63,1033.14 371.37,1033.31 371.14,1033.48 370.91,1033.67 370.71,1033.86 370.52,1034.07 370.34,1034.28 370.18,1034.51 370.04,1034.75 369.91,1034.99 369.80,1035.25 369.71,1035.52 369.63,1035.80 369.56,1036.08 369.51,1036.38 369.48,1036.69 369.47,1037.01 369.47,1037.34 369.48,1037.67 369.51,1038.02 369.56,1038.38 369.62,1038.75 369.70,1039.13"/>
    </edge>
    <edge id=":J112_5" function="internal">
        <lane id=":J112_5_0" index="0" speed="11.11" length="23.08" width="3.00" shape="373.85,1032.27 351.41,1037.69"/>
    </edge>
    <edge id=":J112_6" function="internal">
        <lane id=":J112_6_0" index="0" speed="9.13" length="18.99" width="3.00" shape="373.85,1032.27 372.88,1032.49 371.95,1032.68 371.05,1032.84 370.17,1032.97 369.33,1033.08 368.51,1033.16 367.73,1033.21 366.97,1033.23 366.24,1033.22 365.54,1033.19 364.87,1033.13 364.23,1033.04 363.62,1032.92 363.04,1032.77 362.48,1032.60 361.96,1032.40 361.46,1032.17 361.00,1031.91 360.56,1031.63 360.15,1031.31 359.77,1030.97 359.42,1030.60 359.10,1030.20 358.81,1029.78 358.55,1029.33 358.32,1028.84 358.11,1028.34 357.94,1027.80 357.79,1027.23"/>
    </edge>
    <edge id=":J112_7" function="internal">
        <lane id=":J112_7_0" index="0" speed="6.43" length="8.93" width="3.00" shape="366.57,1025.25 366.66,1025.61 366.76,1025.96 366.87,1026.29 366.98,1026.60 367.11,1026.90 367.25,1027.19 367.40,1027.46 367.56,1027.71 367.72,1027.94 367.90,1028.17 368.09,1028.37 368.29,1028.56 368.49,1028.73 368.71,1028.89 368.94,1029.03 369.18,1029.16 369.42,1029.27 369.68,1029.36 369.95,1029.44 370.22,1029.50 370.51,1029.55 370.80,1029.58 371.11,1029.59 371.43,1029.59 371.75,1029.58 372.09,1029.54 372.43,1029.50 372.79,1029.43 373.15,1029.35"/>
    </edge>
    <edge id=":J112_8" function="internal">
        <lane id=":J112_8_0" index="0" speed="11.11" length="14.23" width="3.00" shape="366.57,1025.25 369.70,1039.13"/>
        <lane id=":J112_8_1" index="1" speed="11.11" length="14.23" width="3.00" shape="363.64,1025.91 366.77,1039.79"/>
        <lane id=":J112_8_2" index="2" speed="11.11" length="14.23" width="3.00" shape="360.72,1026.57 363.85,1040.45"/>
    </edge>
    <edge id=":J112_11" function="internal">
        <lane id=":J112_11_0" index="0" speed="8.62" length="3.40" width="3.00" shape="360.72,1026.57 360.83,1027.14 360.92,1027.70 360.97,1028.24 360.99,1028.77 360.98,1029.28 360.94,1029.79 360.92,1029.95"/>
    </edge>
    <edge id=":J112_15" function="internal">
        <lane id=":J112_15_0" index="0" speed="8.62" length="13.07" width="3.00" shape="360.92,1029.95 360.87,1030.28 360.76,1030.75 360.63,1031.22 360.46,1031.67 360.27,1032.10 360.04,1032.53 359.78,1032.94 359.49,1033.33 359.17,1033.72 358.82,1034.09 358.44,1034.44 358.02,1034.79 357.58,1035.12 357.10,1035.44 356.59,1035.74 356.05,1036.03 355.48,1036.31 354.88,1036.57 354.25,1036.82 353.59,1037.06 352.89,1037.28 352.17,1037.49 351.41,1037.69"/>
    </edge>
    <edge id=":J112_12" function="internal">