<?xml version="1.0" encoding="UTF-8"?>

<!-- generated on 2023-11-12 13:24:11 by Eclipse SUMO sumo Version 1.19.0
-->

<configuration xmlns:xsi="http://www.w3.org/2001/XMLSchema-instance" xsi:noNamespaceSchemaLocation="http://sumo.dlr.de/xsd/sumoConfiguration.xsd">

    <input>
        <net-file value="basic.net.xml"/>
        <route-files value="od.rou.xml"/>
        <additional-files value="taz.add.xml, vType.xml"/>
    </input>

</configuration>
