<?xml version="1.0" encoding="UTF-8"?>

<!-- generated on 2023-11-23 00:12:08 by Eclipse SUMO netedit Version 1.19.0
<configuration xmlns:xsi="http://www.w3.org/2001/XMLSchema-instance" xsi:noNamespaceSchemaLocation="http://sumo.dlr.de/xsd/neteditConfiguration.xsd">

    <input>
        <additional-files value="taz.add.xml"/>
        <sumo-net-file value="D:\YandexDisk\lvl80\UlyDala\Sumo\UlyDala\basic.net.xml"/>
    </input>

    <output>
        <output-file value="D:\YandexDisk\lvl80\UlyDala\Sumo\UlyDala\basic.net.xml"/>
    </output>

    <processing>
        <geometry.min-radius.fix.railways value="false"/>
        <geometry.max-grade.fix value="false"/>
        <offset.disable-normalization value="true"/>
        <lefthand value="0"/>
    </processing>

    <junctions>
        <no-turnarounds value="true"/>
        <junctions.corner-detail value="20"/>
        <junctions.internal-link-detail value="30"/>
        <junctions.limit-turn-speed value="5.50"/>
        <rectangular-lane-cut value="0"/>
    </junctions>

    <pedestrian>
        <walkingareas value="0"/>
    </pedestrian>

    <visualisation>
        <gui-settings-file value="background/background_config.xml"/>
    </visualisation>

</configuration>
-->

<net version="1.16" junctionCornerDetail="20" junctionLinkDetail="30" limitTurnSpeed="5.50" xmlns:xsi="http://www.w3.org/2001/XMLSchema-instance" xsi:noNamespaceSchemaLocation="http://sumo.dlr.de/xsd/net_file.xsd">

    <location netOffset="0.00,0.00" convBoundary="-1387.22,-1511.96,1618.93,1632.95" origBoundary="-10000000000.00,-10000000000.00,10000000000.00,10000000000.00" projParameter="!"/>

    <edge id=":J0_0" function="internal">
        <lane id=":J0_0_0" index="0" speed="16.67" length="11.51" width="3.75" shape="-690.66,-484.65 -690.47,-484.09 -690.32,-483.56 -690.21,-483.06 -690.12,-482.59 -690.07,-482.14 -690.04,-481.72 -690.04,-481.32 -690.06,-480.93 -690.10,-480.56 -690.15,-480.21 -690.21,-479.86 -690.29,-479.53 -690.37,-479.19 -690.45,-478.87 -690.54,-478.54 -690.62,-478.22 -690.71,-477.89 -690.78,-477.55 -690.84,-477.21 -690.89,-476.85 -690.93,-476.48 -690.95,-476.10 -690.94,-475.70 -690.92,-475.27 -690.86,-474.83 -690.78,-474.36 -690.66,-473.86 -690.51,-473.33 -690.32,-472.77"/>
        <lane id=":J0_0_1" index="1" speed="16.67" length="11.51" width="3.75" shape="-694.19,-483.38 -690.32,-472.77"/>
        <lane id=":J0_0_2" index="2" speed="16.67" length="11.51" width="3.75" shape="-697.72,-482.12 -693.84,-471.49"/>
        <lane id=":J0_0_3" index="3" speed="16.67" length="11.51" width="3.75" shape="-701.25,-480.85 -697.37,-470.21"/>
    </edge>
    <edge id=":J1_0" function="internal">
        <lane id=":J1_0_0" index="0" speed="6.42" length="8.93" width="3.00" shape="752.22,733.76 752.13,733.39 752.03,733.05 751.92,732.72 751.79,732.40 751.66,732.10 751.52,731.82 751.37,731.55 751.21,731.30 751.04,731.07 750.86,730.85 750.67,730.65 750.47,730.46 750.27,730.29 750.05,730.13 749.82,729.99 749.58,729.87 749.33,729.76 749.08,729.67 748.81,729.60 748.53,729.54 748.25,729.49 747.95,729.46 747.64,729.45 747.33,729.46 747.00,729.48 746.67,729.51 746.32,729.57 745.97,729.63 745.60,729.72"/>
    </edge>
    <edge id=":J1_1" function="internal">
        <lane id=":J1_1_0" index="0" speed="8.54" length="16.33" width="3.00" shape="752.22,733.76 752.10,733.19 752.01,732.64 751.96,732.10 751.93,731.57 751.94,731.06 751.97,730.56 752.04,730.07 752.14,729.60 752.27,729.14 752.43,728.70 752.63,728.27 752.85,727.85 753.11,727.44 753.39,727.05 753.71,726.67 754.06,726.31 754.44,725.96 754.85,725.62 755.30,725.29 755.77,724.98 756.28,724.68 756.81,724.40 757.38,724.13 757.98,723.87 758.61,723.63 759.27,723.40 759.96,723.18 760.69,722.97 761.44,722.78"/>
    </edge>
    <edge id=":J1_2" function="internal">
        <lane id=":J1_2_0" index="0" speed="6.47" length="8.97" width="3.00" shape="762.14,725.70 761.78,725.80 761.43,725.90 761.10,726.01 760.79,726.13 760.49,726.26 760.21,726.41 759.94,726.56 759.69,726.72 759.46,726.89 759.24,727.07 759.03,727.26 758.85,727.46 758.67,727.68 758.52,727.90 758.38,728.13 758.25,728.37 758.14,728.62 758.05,728.88 757.97,729.15 757.91,729.43 757.86,729.72 757.83,730.01 757.82,730.32 757.82,730.64 757.84,730.97 757.87,731.31 757.92,731.66 757.98,732.02 758.06,732.38"/>
    </edge>
    <edge id=":J1_3" function="internal">
        <lane id=":J1_3_0" index="0" speed="11.11" length="17.02" width="3.00" shape="762.14,725.70 745.60,729.72"/>
    </edge>
    <edge id=":J1_4" function="internal">
        <lane id=":J1_4_0" index="0" speed="11.11" length="17.05" width="3.00" shape="744.88,726.81 761.44,722.78"/>
    </edge>
    <edge id=":J1_5" function="internal">
        <lane id=":J1_5_0" index="0" speed="7.86" length="3.91" width="3.00" shape="744.88,726.81 745.44,726.68 745.99,726.57 746.53,726.49 747.05,726.43 747.55,726.40 748.04,726.40 748.52,726.41 748.74,726.44"/>
    </edge>
    <edge id=":J1_6" function="internal">
        <lane id=":J1_6_0" index="0" speed="7.86" length="9.94" width="3.00" shape="748.74,726.44 748.98,726.46 749.42,726.52 749.85,726.62 750.26,726.73 750.66,726.88 751.05,727.04 751.42,727.23 751.77,727.45 752.11,727.69 752.43,727.96 752.74,728.25 753.04,728.56 753.31,728.90 753.58,729.26 753.83,729.65 754.06,730.07 754.28,730.51 754.48,730.97 754.67,731.46 754.84,731.97 755.00,732.51 755.14,733.07"/>
    </edge>
    <edge id=":J104_0" function="internal">
        <lane id=":J104_0_0" index="0" speed="6.44" length="8.93" width="3.00" shape="585.38,987.67 585.29,987.31 585.18,986.96 585.07,986.63 584.95,986.31 584.82,986.02 584.68,985.73 584.53,985.47 584.38,985.21 584.21,984.98 584.03,984.76 583.84,984.55 583.64,984.36 583.43,984.19 583.21,984.03 582.99,983.89 582.75,983.77 582.50,983.66 582.24,983.56 581.98,983.49 581.70,983.42 581.42,983.38 581.12,983.35 580.81,983.33 580.50,983.33 580.17,983.35 579.84,983.38 579.49,983.43 579.14,983.49 578.77,983.57"/>
    </edge>
    <edge id=":J104_1" function="internal">
        <lane id=":J104_1_0" index="0" speed="11.11" length="14.03" width="3.00" shape="585.38,987.67 582.18,974.01"/>
    </edge>
    <edge id=":J104_2" function="internal">
        <lane id=":J104_2_0" index="0" speed="7.91" length="3.83" width="3.00" shape="585.38,987.67 585.26,987.10 585.16,986.56 585.09,986.02 585.04,985.50 585.02,985.00 585.02,984.51 585.04,984.04 585.06,983.87"/>
    </edge>
    <edge id=":J104_12" function="internal">
        <lane id=":J104_12_0" index="0" speed="7.91" length="10.00" width="3.00" shape="585.06,983.87 585.09,983.58 585.16,983.14 585.26,982.71 585.38,982.29 585.53,981.89 585.70,981.51 585.89,981.14 586.11,980.79 586.36,980.45 586.62,980.12 586.91,979.81 587.23,979.52 587.57,979.24 587.93,978.97 588.32,978.72 588.74,978.49 589.17,978.27 589.63,978.06 590.12,977.87 590.63,977.70 591.16,977.54 591.72,977.39"/>
    </edge>
    <edge id=":J104_3" function="internal">
        <lane id=":J104_3_0" index="0" speed="6.49" length="8.99" width="3.00" shape="592.43,980.31 592.06,980.40 591.72,980.51 591.38,980.62 591.07,980.75 590.77,980.88 590.48,981.02 590.22,981.17 589.96,981.34 589.73,981.51 589.50,981.69 589.30,981.88 589.11,982.08 588.94,982.29 588.78,982.51 588.64,982.75 588.51,982.99 588.40,983.23 588.30,983.49 588.22,983.76 588.16,984.04 588.11,984.33 588.08,984.63 588.06,984.94 588.06,985.25 588.08,985.58 588.11,985.92 588.16,986.27 588.22,986.62 588.30,986.99"/>
    </edge>
    <edge id=":J104_4" function="internal">
        <lane id=":J104_4_0" index="0" speed="11.11" length="14.04" width="3.00" shape="592.43,980.31 578.77,983.57"/>
    </edge>
    <edge id=":J104_5" function="internal">
        <lane id=":J104_5_0" index="0" speed="7.87" length="13.82" width="3.00" shape="592.43,980.31 591.86,980.43 591.31,980.54 590.78,980.61 590.26,980.67 589.76,980.69 589.27,980.70 588.79,980.68 588.33,980.63 587.89,980.56 587.46,980.47 587.05,980.35 586.65,980.20 586.27,980.03 585.90,979.84 585.55,979.62 585.21,979.38 584.88,979.12 584.58,978.83 584.28,978.51 584.01,978.17 583.74,977.81 583.50,977.42 583.26,977.00 583.05,976.57 582.84,976.10 582.66,975.62 582.48,975.11 582.33,974.57 582.18,974.01"/>
    </edge>
    <edge id=":J104_6" function="internal">
        <lane id=":J104_6_0" index="0" speed="6.44" length="8.93" width="3.00" shape="585.11,973.32 585.20,973.69 585.30,974.03 585.41,974.36 585.53,974.68 585.66,974.98 585.80,975.26 585.95,975.53 586.11,975.78 586.28,976.01 586.46,976.23 586.65,976.43 586.85,976.62 587.06,976.79 587.28,976.95 587.50,977.09 587.74,977.22 587.99,977.32 588.25,977.42 588.51,977.49 588.79,977.56 589.08,977.60 589.37,977.63 589.68,977.64 590.00,977.64 590.32,977.62 590.66,977.59 591.00,977.54 591.36,977.47 591.72,977.39"/>
    </edge>
    <edge id=":J104_7" function="internal">
        <lane id=":J104_7_0" index="0" speed="11.11" length="14.03" width="3.00" shape="585.11,973.32 588.30,986.99"/>
    </edge>
    <edge id=":J104_8" function="internal">
        <lane id=":J104_8_0" index="0" speed="7.89" length="3.85" width="3.00" shape="585.11,973.32 585.23,973.89 585.33,974.44 585.40,974.97 585.45,975.49 585.47,975.99 585.47,976.48 585.45,976.96 585.43,977.15"/>
    </edge>
    <edge id=":J104_13" function="internal">
        <lane id=":J104_13_0" index="0" speed="7.89" length="9.97" width="3.00" shape="585.43,977.15 585.40,977.42 585.33,977.86 585.23,978.29 585.11,978.70 584.97,979.10 584.80,979.48 584.60,979.85 584.38,980.21 584.14,980.54 583.87,980.87 583.58,981.18 583.27,981.47 582.93,981.75 582.56,982.01 582.17,982.26 581.76,982.49 581.32,982.71 580.86,982.91 580.38,983.10 579.87,983.27 579.33,983.43 578.77,983.57"/>
    </edge>
    <edge id=":J104_9" function="internal">
        <lane id=":J104_9_0" index="0" speed="6.46" length="8.96" width="3.00" shape="578.08,980.65 578.44,980.56 578.79,980.46 579.12,980.34 579.44,980.22 579.74,980.09 580.02,979.95 580.29,979.80 580.54,979.64 580.77,979.47 580.99,979.29 581.20,979.10 581.39,978.90 581.56,978.69 581.72,978.47 581.86,978.24 581.98,978.00 582.09,977.75 582.19,977.50 582.27,977.23 582.33,976.95 582.38,976.66 582.41,976.36 582.42,976.06 582.42,975.74 582.41,975.41 582.37,975.08 582.33,974.73 582.26,974.38 582.18,974.01"/>
    </edge>
    <edge id=":J104_10" function="internal">
        <lane id=":J104_10_0" index="0" speed="11.11" length="14.02" width="3.00" shape="578.08,980.65 591.72,977.39"/>
    </edge>
    <edge id=":J104_11" function="internal">
        <lane id=":J104_11_0" index="0" speed="7.87" length="13.81" width="3.00" shape="578.08,980.65 578.65,980.53 579.20,980.43 579.73,980.36 580.25,980.31 580.75,980.28 581.24,980.28 581.71,980.30 582.17,980.35 582.61,980.42 583.04,980.52 583.45,980.64 583.85,980.79 584.24,980.96 584.60,981.15 584.95,981.37 585.29,981.61 585.61,981.88 585.92,982.17 586.21,982.49 586.49,982.83 586.75,983.19 587.00,983.58 587.23,984.00 587.44,984.43 587.65,984.90 587.83,985.38 588.00,985.89 588.16,986.43 588.30,986.99"/>
    </edge>
    <edge id=":J106_0" function="internal">
        <lane id=":J106_0_0" index="0" speed="6.42" length="8.93" width="3.00" shape="138.10,1094.21 138.01,1093.84 137.91,1093.50 137.81,1093.16 137.69,1092.85 137.56,1092.55 137.42,1092.26 137.27,1092.00 137.12,1091.74 136.95,1091.51 136.77,1091.29 136.58,1091.08 136.39,1090.89 136.18,1090.72 135.96,1090.56 135.74,1090.42 135.50,1090.30 135.25,1090.19 135.00,1090.09 134.73,1090.02 134.45,1089.96 134.17,1089.91 133.87,1089.88 133.56,1089.87 133.25,1089.87 132.92,1089.89 132.59,1089.92 132.24,1089.97 131.89,1090.04 131.52,1090.12"/>
    </edge>
    <edge id=":J106_1" function="internal">
        <lane id=":J106_1_0" index="0" speed="11.11" length="14.07" width="3.00" shape="138.10,1094.21 135.02,1080.48"/>
    </edge>
    <edge id=":J106_2" function="internal">
        <lane id=":J106_2_0" index="0" speed="7.91" length="3.86" width="3.00" shape="138.10,1094.21 137.98,1093.64 137.89,1093.09 137.82,1092.55 137.78,1092.03 137.76,1091.53 137.76,1091.03 137.79,1090.56 137.81,1090.38"/>
    </edge>
    <edge id=":J106_12" function="internal">
        <lane id=":J106_12_0" index="0" speed="7.91" length="10.00" width="3.00" shape="137.81,1090.38 137.84,1090.10 137.92,1089.65 138.02,1089.22 138.14,1088.81 138.29,1088.41 138.47,1088.03 138.66,1087.66 138.88,1087.30 139.13,1086.97 139.40,1086.64 139.69,1086.34 140.01,1086.04 140.35,1085.77 140.72,1085.51 141.11,1085.26 141.52,1085.03 141.96,1084.81 142.43,1084.61 142.91,1084.43 143.42,1084.26 143.96,1084.10 144.52,1083.96"/>
    </edge>
    <edge id=":J106_3" function="internal">
        <lane id=":J106_3_0" index="0" speed="6.49" length="9.01" width="3.00" shape="145.19,1086.89 144.83,1086.98 144.48,1087.08 144.15,1087.19 143.83,1087.31 143.53,1087.44 143.25,1087.58 142.98,1087.73 142.73,1087.89 142.49,1088.06 142.27,1088.24 142.06,1088.43 141.87,1088.63 141.69,1088.84 141.53,1089.06 141.39,1089.29 141.26,1089.53 141.15,1089.78 141.05,1090.04 140.97,1090.31 140.91,1090.59 140.86,1090.88 140.82,1091.18 140.81,1091.49 140.80,1091.81 140.82,1092.13 140.85,1092.47 140.89,1092.82 140.95,1093.18 141.03,1093.55"/>
    </edge>
    <edge id=":J106_4" function="internal">
        <lane id=":J106_4_0" index="0" speed="11.11" length="14.05" width="3.00" shape="145.19,1086.89 131.52,1090.12"/>
    </edge>
    <edge id=":J106_5" function="internal">
        <lane id=":J106_5_0" index="0" speed="7.87" length="13.81" width="3.00" shape="145.19,1086.89 144.63,1087.01 144.08,1087.10 143.54,1087.17 143.02,1087.22 142.52,1087.24 142.03,1087.24 141.56,1087.21 141.10,1087.16 140.66,1087.09 140.23,1086.99 139.82,1086.87 139.42,1086.72 139.04,1086.55 138.67,1086.35 138.32,1086.13 137.99,1085.88 137.67,1085.62 137.36,1085.32 137.07,1085.00 136.80,1084.66 136.54,1084.29 136.30,1083.90 136.07,1083.49 135.85,1083.05 135.66,1082.58 135.47,1082.10 135.31,1081.58 135.15,1081.05 135.02,1080.48"/>
    </edge>
    <edge id=":J106_6" function="internal">
        <lane id=":J106_6_0" index="0" speed="6.44" length="8.93" width="3.00" shape="137.94,1079.83 138.03,1080.19 138.13,1080.54 138.24,1080.87 138.36,1081.18 138.48,1081.48 138.62,1081.77 138.77,1082.04 138.93,1082.29 139.09,1082.53 139.27,1082.75 139.46,1082.95 139.66,1083.14 139.86,1083.32 140.08,1083.47 140.31,1083.62 140.54,1083.74 140.79,1083.86 141.05,1083.95 141.31,1084.03 141.59,1084.09 141.88,1084.14 142.17,1084.18 142.48,1084.19 142.79,1084.19 143.12,1084.18 143.45,1084.15 143.80,1084.10 144.15,1084.04 144.52,1083.96"/>
    </edge>
    <edge id=":J106_7" function="internal">
        <lane id=":J106_7_0" index="0" speed="11.11" length="14.07" width="3.00" shape="137.94,1079.83 141.03,1093.55"/>
    </edge>
    <edge id=":J106_8" function="internal">
        <lane id=":J106_8_0" index="0" speed="7.95" length="3.84" width="3.00" shape="137.94,1079.83 138.06,1080.39 138.15,1080.94 138.22,1081.47 138.26,1081.99 138.28,1082.50 138.28,1082.99 138.25,1083.46 138.23,1083.64"/>
    </edge>
    <edge id=":J106_13" function="internal">
        <lane id=":J106_13_0" index="0" speed="7.95" length="10.03" width="3.00" shape="138.23,1083.64 138.20,1083.92 138.12,1084.36 138.02,1084.79 137.90,1085.21 137.75,1085.61 137.57,1085.99 137.38,1086.36 137.16,1086.72 136.91,1087.06 136.64,1087.38 136.35,1087.69 136.03,1087.99 135.69,1088.27 135.32,1088.53 134.93,1088.78 134.51,1089.02 134.08,1089.24 133.61,1089.44 133.13,1089.64 132.61,1089.81 132.08,1089.97 131.52,1090.12"/>
    </edge>
    <edge id=":J106_9" function="internal">
        <lane id=":J106_9_0" index="0" speed="6.53" length="9.06" width="3.00" shape="130.81,1087.20 131.18,1087.11 131.53,1087.00 131.86,1086.89 132.18,1086.76 132.49,1086.63 132.77,1086.48 133.04,1086.33 133.30,1086.17 133.54,1085.99 133.76,1085.81 133.97,1085.62 134.16,1085.42 134.34,1085.20 134.50,1084.98 134.64,1084.75 134.77,1084.51 134.89,1084.26 134.98,1084.00 135.07,1083.73 135.13,1083.45 135.18,1083.16 135.22,1082.86 135.24,1082.55 135.24,1082.23 135.23,1081.90 135.20,1081.56 135.15,1081.21 135.09,1080.85 135.02,1080.48"/>
    </edge>
    <edge id=":J106_10" function="internal">
        <lane id=":J106_10_0" index="0" speed="11.11" length="14.08" width="3.00" shape="130.81,1087.20 144.52,1083.96"/>
    </edge>
    <edge id=":J106_11" function="internal">
        <lane id=":J106_11_0" index="0" speed="7.85" length="13.86" width="3.00" shape="130.81,1087.20 131.38,1087.08 131.93,1086.97 132.47,1086.90 132.99,1086.84 133.50,1086.81 133.99,1086.81 134.46,1086.83 134.92,1086.88 135.37,1086.95 135.79,1087.04 136.21,1087.17 136.61,1087.31 136.99,1087.48 137.36,1087.67 137.71,1087.89 138.05,1088.14 138.37,1088.40 138.67,1088.70 138.96,1089.02 139.24,1089.36 139.50,1089.72 139.74,1090.12 139.97,1090.53 140.19,1090.97 140.39,1091.44 140.57,1091.93 140.74,1092.45 140.89,1092.99 141.03,1093.55"/>
    </edge>
    <edge id=":J108_0" function="internal">
        <lane id=":J108_0_0" index="0" speed="6.46" length="8.95" width="3.00" shape="141.32,878.28 141.23,877.92 141.12,877.57 141.01,877.24 140.89,876.92 140.75,876.62 140.61,876.34 140.46,876.07 140.30,875.82 140.13,875.58 139.95,875.36 139.76,875.16 139.56,874.97 139.35,874.80 139.13,874.64 138.90,874.50 138.66,874.37 138.41,874.26 138.16,874.17 137.89,874.09 137.61,874.03 137.32,873.98 137.03,873.95 136.72,873.94 136.41,873.94 136.08,873.95 135.75,873.99 135.40,874.04 135.05,874.10 134.68,874.18"/>
    </edge>
    <edge id=":J108_1" function="internal">
        <lane id=":J108_1_0" index="0" speed="7.87" length="13.82" width="3.00" shape="141.32,878.28 141.19,877.71 141.09,877.16 141.02,876.63 140.97,876.11 140.94,875.61 140.94,875.12 140.96,874.64 141.01,874.19 141.08,873.74 141.17,873.31 141.29,872.90 141.44,872.50 141.61,872.12 141.80,871.75 142.02,871.40 142.26,871.06 142.53,870.74 142.82,870.43 143.13,870.14 143.48,869.86 143.84,869.60 144.23,869.35 144.64,869.12 145.08,868.91 145.55,868.71 146.03,868.52 146.55,868.35 147.08,868.19 147.64,868.05"/>
    </edge>
    <edge id=":J108_2" function="internal">
        <lane id=":J108_2_0" index="0" speed="6.44" length="8.93" width="3.00" shape="148.32,870.98 147.96,871.07 147.61,871.17 147.28,871.28 146.97,871.40 146.67,871.53 146.38,871.67 146.12,871.82 145.86,871.98 145.63,872.14 145.41,872.32 145.20,872.51 145.02,872.71 144.84,872.92 144.69,873.14 144.55,873.36 144.42,873.60 144.31,873.85 144.22,874.11 144.14,874.37 144.08,874.65 144.03,874.94 144.00,875.23 143.99,875.54 143.99,875.85 144.01,876.18 144.04,876.51 144.09,876.86 144.16,877.21 144.24,877.58"/>
    </edge>
    <edge id=":J108_3" function="internal">
        <lane id=":J108_3_0" index="0" speed="11.11" length="14.01" width="3.00" shape="148.32,870.98 134.68,874.18"/>
    </edge>
    <edge id=":J108_4" function="internal">
        <lane id=":J108_4_0" index="0" speed="11.11" length="14.03" width="3.00" shape="133.99,871.26 147.64,868.05"/>
    </edge>
    <edge id=":J108_5" function="internal">
        <lane id=":J108_5_0" index="0" speed="7.89" length="3.86" width="3.00" shape="133.99,871.26 134.55,871.14 135.10,871.04 135.63,870.96 136.15,870.91 136.65,870.89 137.14,870.89 137.61,870.91 137.82,870.93"/>
    </edge>
    <edge id=":J108_6" function="internal">
        <lane id=":J108_6_0" index="0" speed="7.89" length="9.95" width="3.00" shape="137.82,870.93 138.07,870.96 138.51,871.03 138.94,871.12 139.35,871.24 139.75,871.39 140.13,871.56 140.50,871.75 140.86,871.97 141.19,872.21 141.52,872.48 141.83,872.77 142.12,873.08 142.40,873.42 142.66,873.79 142.91,874.18 143.15,874.59 143.37,875.03 143.57,875.49 143.76,875.97 143.93,876.49 144.09,877.02 144.24,877.58"/>
    </edge>
    <edge id=":J11_0" function="internal">
        <lane id=":J11_0_0" index="0" speed="6.57" length="9.21" width="3.75" shape="899.52,997.21 899.43,996.82 899.32,996.45 899.20,996.10 899.08,995.76 898.94,995.44 898.80,995.13 898.64,994.85 898.48,994.58 898.31,994.32 898.13,994.08 897.93,993.86 897.73,993.65 897.52,993.47 897.30,993.29 897.07,993.14 896.83,993.00 896.59,992.87 896.33,992.77 896.06,992.67 895.78,992.60 895.50,992.54 895.20,992.50 894.90,992.48 894.58,992.47 894.26,992.48 893.93,992.50 893.58,992.54 893.23,992.60 892.87,992.67"/>
    </edge>
    <edge id=":J11_1" function="internal">
        <lane id=":J11_1_0" index="0" speed="6.63" length="9.17" width="3.00" shape="906.41,989.56 906.05,989.65 905.71,989.76 905.38,989.87 905.07,990.00 904.78,990.14 904.50,990.28 904.24,990.44 903.99,990.61 903.76,990.78 903.54,990.97 903.34,991.17 903.16,991.38 902.99,991.60 902.84,991.83 902.70,992.07 902.58,992.32 902.48,992.58 902.39,992.85 902.31,993.13 902.26,993.42 902.21,993.73 902.19,994.04 902.18,994.36 902.18,994.70 902.20,995.04 902.24,995.40 902.29,995.76 902.36,996.14 902.44,996.52"/>
    </edge>
    <edge id=":J11_2" function="internal">
        <lane id=":J11_2_0" index="0" speed="16.67" length="13.82" width="3.75" shape="906.41,989.56 892.87,992.67"/>
        <lane id=":J11_2_1" index="1" speed="16.67" length="13.82" width="3.75" shape="905.52,985.92 892.05,989.01"/>
        <lane id=":J11_2_2" index="2" speed="16.67" length="13.82" width="3.75" shape="904.63,982.27 891.23,985.35"/>
    </edge>
    <edge id=":J111_0" function="internal">
        <lane id=":J111_0_0" index="0" speed="6.45" length="8.93" width="3.00" shape="799.75,935.92 799.66,935.56 799.56,935.21 799.45,934.88 799.33,934.57 799.20,934.27 799.06,933.99 798.91,933.72 798.75,933.47 798.58,933.23 798.40,933.01 798.21,932.81 798.01,932.62 797.80,932.45 797.58,932.29 797.35,932.15 797.12,932.02 796.87,931.91 796.61,931.82 796.34,931.74 796.07,931.68 795.78,931.63 795.49,931.60 795.18,931.59 794.86,931.59 794.54,931.60 794.20,931.64 793.86,931.68 793.50,931.75 793.14,931.83"/>
    </edge>
    <edge id=":J111_1" function="internal">
        <lane id=":J111_1_0" index="0" speed="11.11" length="14.04" width="3.00" shape="799.75,935.92 796.54,922.25"/>
    </edge>
    <edge id=":J111_2" function="internal">
        <lane id=":J111_2_0" index="0" speed="8.55" length="3.36" width="3.00" shape="799.75,935.92 799.63,935.36 799.55,934.81 799.49,934.27 799.47,933.74 799.47,933.23 799.51,932.74 799.53,932.59"/>
    </edge>
    <edge id=":J111_12" function="internal">
        <lane id=":J111_12_0" index="0" speed="8.55" length="12.97" width="3.00" shape="799.53,932.59 799.58,932.25 799.68,931.78 799.81,931.32 799.97,930.88 800.17,930.45 800.39,930.03 800.65,929.63 800.94,929.23 801.25,928.86 801.60,928.49 801.99,928.14 802.40,927.80 802.84,927.48 803.32,927.16 803.82,926.87 804.36,926.58 804.93,926.31 805.53,926.05 806.16,925.80 806.82,925.57 807.52,925.35 808.24,925.14 809.00,924.95"/>
    </edge>
    <edge id=":J111_3" function="internal">
        <lane id=":J111_3_0" index="0" speed="6.48" length="8.98" width="3.00" shape="809.70,927.87 809.34,927.96 808.99,928.07 808.66,928.18 808.34,928.30 808.04,928.44 807.76,928.58 807.49,928.73 807.24,928.89 807.00,929.07 806.78,929.25 806.58,929.44 806.39,929.64 806.22,929.85 806.06,930.07 805.92,930.30 805.79,930.54 805.68,930.79 805.59,931.05 805.51,931.32 805.45,931.60 805.40,931.89 805.37,932.19 805.35,932.49 805.35,932.81 805.37,933.14 805.40,933.48 805.45,933.82 805.51,934.18 805.59,934.55"/>
    </edge>
    <edge id=":J111_4" function="internal">
        <lane id=":J111_4_0" index="0" speed="11.11" length="17.03" width="3.00" shape="809.70,927.87 793.14,931.83"/>
    </edge>
    <edge id=":J111_5" function="internal">
        <lane id=":J111_5_0" index="0" speed="8.51" length="16.33" width="3.00" shape="809.70,927.87 808.94,928.04 808.20,928.19 807.48,928.31 806.78,928.40 806.11,928.47 805.46,928.52 804.83,928.53 804.22,928.52 803.64,928.49 803.07,928.42 802.53,928.33 802.01,928.22 801.51,928.08 801.04,927.91 800.58,927.72 800.15,927.50 799.74,927.25 799.35,926.98 798.99,926.68 798.64,926.36 798.32,926.00 798.02,925.63 797.74,925.22 797.49,924.80 797.26,924.34 797.04,923.86 796.85,923.35 796.69,922.82 796.54,922.25"/>
    </edge>
    <edge id=":J111_6" function="internal">
        <lane id=":J111_6_0" index="0" speed="6.44" length="8.93" width="3.00" shape="802.38,920.88 802.47,921.24 802.57,921.59 802.69,921.92 802.81,922.23 802.94,922.53 803.08,922.82 803.23,923.08 803.39,923.33 803.56,923.57 803.74,923.79 803.93,923.99 804.12,924.18 804.33,924.35 804.55,924.51 804.78,924.65 805.02,924.77 805.27,924.88 805.52,924.97 805.79,925.05 806.07,925.11 806.35,925.16 806.65,925.19 806.96,925.20 807.27,925.20 807.60,925.18 807.93,925.15 808.28,925.10 808.63,925.03 809.00,924.95"/>
    </edge>
    <edge id=":J111_7" function="internal">
        <lane id=":J111_7_0" index="0" speed="11.11" length="14.04" width="3.00" shape="802.38,920.88 805.59,934.55"/>
        <lane id=":J111_7_1" index="1" speed="11.11" length="14.04" width="3.00" shape="799.46,921.57 802.67,935.23"/>
    </edge>
    <edge id=":J111_9" function="internal">
        <lane id=":J111_9_0" index="0" speed="7.89" length="3.85" width="3.00" shape="799.46,921.57 799.58,922.13 799.68,922.68 799.75,923.22 799.80,923.74 799.83,924.24 799.83,924.73 799.81,925.21 799.79,925.39"/>
    </edge>
    <edge id=":J111_13" function="internal">
        <lane id=":J111_13_0" index="0" speed="7.89" length="9.97" width="3.00" shape="799.79,925.39 799.76,925.67 799.69,926.11 799.59,926.54 799.47,926.96 799.33,927.36 799.16,927.74 798.96,928.11 798.74,928.46 798.50,928.80 798.24,929.12 797.94,929.43 797.63,929.73 797.29,930.00 796.93,930.27 796.54,930.51 796.13,930.75 795.69,930.96 795.23,931.17 794.74,931.35 794.23,931.53 793.70,931.68 793.14,931.83"/>
    </edge>
    <edge id=":J111_10" function="internal">
        <lane id=":J111_10_0" index="0" speed="6.46" length="8.96" width="3.00" shape="792.45,928.91 792.81,928.81 793.16,928.71 793.49,928.60 793.80,928.48 794.10,928.35 794.38,928.21 794.65,928.06 794.90,927.90 795.14,927.73 795.36,927.54 795.56,927.35 795.75,927.15 795.92,926.95 796.08,926.73 796.22,926.50 796.34,926.26 796.45,926.01 796.55,925.75 796.63,925.48 796.69,925.20 796.73,924.91 796.77,924.62 796.78,924.31 796.78,923.99 796.76,923.66 796.73,923.33 796.68,922.98 796.62,922.62 796.54,922.25"/>
    </edge>
    <edge id=":J111_11" function="internal">
        <lane id=":J111_11_0" index="0" speed="11.11" length="17.01" width="3.00" shape="792.45,928.91 809.00,924.95"/>
    </edge>
    <edge id=":J112_0" function="internal">
        <lane id=":J112_0_0" index="0" speed="6.41" length="8.93" width="3.00" shape="357.99,1041.76 357.90,1041.40 357.80,1041.05 357.70,1040.72 357.58,1040.40 357.45,1040.10 357.31,1039.82 357.16,1039.55 357.01,1039.30 356.84,1039.06 356.66,1038.84 356.47,1038.63 356.28,1038.45 356.07,1038.27 355.85,1038.12 355.62,1037.98 355.39,1037.85 355.14,1037.74 354.88,1037.65 354.62,1037.58 354.34,1037.51 354.06,1037.47 353.76,1037.44 353.45,1037.43 353.14,1037.43 352.81,1037.45 352.48,1037.49 352.13,1037.54 351.77,1037.61 351.41,1037.69"/>
    </edge>
    <edge id=":J112_1" function="internal">
        <lane id=":J112_1_0" index="0" speed="11.11" length="14.19" width="3.00" shape="357.99,1041.76 354.87,1027.93"/>
        <lane id=":J112_1_1" index="1" speed="11.11" length="14.19" width="3.00" shape="360.92,1041.10 357.80,1027.26"/>
    </edge>
    <edge id=":J112_3" function="internal">
        <lane id=":J112_3_0" index="0" speed="9.20" length="3.07" width="3.00" shape="360.92,1041.10 360.81,1040.53 360.73,1039.97 360.70,1039.42 360.70,1038.88 360.74,1038.36 360.79,1038.06"/>
    </edge>
    <edge id=":J112_13" function="internal">
        <lane id=":J112_13_0" index="0" speed="9.20" length="15.94" width="3.00" shape="360.79,1038.06 360.82,1037.84 360.94,1037.34 361.09,1036.85 361.28,1036.38 361.51,1035.91 361.78,1035.46 362.09,1035.02 362.43,1034.59 362.81,1034.17 363.23,1033.77 363.69,1033.38 364.19,1033.00 364.72,1032.63 365.29,1032.27 365.90,1031.93 366.55,1031.59 367.23,1031.27 367.95,1030.96 368.72,1030.67 369.51,1030.38 370.35,1030.11 371.23,1029.85 372.14,1029.60 373.09,1029.37"/>
    </edge>
    <edge id=":J112_4" function="internal">
        <lane id=":J112_4_0" index="0" speed="6.54" length="9.12" width="3.00" shape="373.78,1032.29 373.42,1032.38 373.08,1032.48 372.75,1032.60 372.43,1032.72 372.14,1032.85 371.86,1033.00 371.59,1033.15 371.34,1033.31 371.10,1033.49 370.89,1033.67 370.68,1033.87 370.49,1034.07 370.32,1034.29 370.17,1034.51 370.03,1034.75 369.90,1035.00 369.79,1035.25 369.70,1035.52 369.62,1035.80 369.56,1036.08 369.51,1036.38 369.48,1036.69 369.46,1037.01 369.46,1037.34 369.48,1037.67 369.51,1038.02 369.56,1038.38 369.62,1038.75 369.70,1039.13"/>
    </edge>
    <edge id=":J112_5" function="internal">
        <lane id=":J112_5_0" index="0" speed="11.11" length="23.02" width="3.00" shape="373.78,1032.29 351.41,1037.69"/>
    </edge>
    <edge id=":J112_6" function="internal">
        <lane id=":J112_6_0" index="0" speed="9.11" length="18.91" width="3.00" shape="373.78,1032.29 372.82,1032.50 371.90,1032.69 371.00,1032.85 370.13,1032.99 369.29,1033.09 368.47,1033.17 367.69,1033.22 366.94,1033.24 366.21,1033.23 365.51,1033.20 364.85,1033.14 364.21,1033.05 363.60,1032.93 363.02,1032.79 362.47,1032.61 361.95,1032.41 361.45,1032.18 360.99,1031.93 360.55,1031.64 360.15,1031.33 359.77,1030.99 359.42,1030.62 359.10,1030.22 358.81,1029.80 358.55,1029.35 358.32,1028.87 358.12,1028.36 357.94,1027.83 357.80,1027.26"/>
    </edge>
    <edge id=":J112_7" function="internal">
        <lane id=":J112_7_0" index="0" speed="7.19" length="11.40" width="3.00" shape="363.65,1025.94 363.74,1026.30 363.85,1026.65 363.98,1026.97 364.12,1027.28 364.28,1027.58 364.45,1027.85 364.65,1028.11 364.85,1028.35 365.08,1028.57 365.32,1028.78 365.58,1028.97 365.86,1029.14 366.15,1029.29 366.46,1029.42 366.78,1029.54 367.13,1029.64 367.48,1029.73 367.86,1029.79 368.25,1029.84 368.66,1029.87 369.09,1029.89 369.53,1029.88 369.99,1029.86 370.46,1029.82 370.95,1029.77 371.46,1029.69 371.99,1029.60 372.53,1029.49 373.09,1029.37"/>
    </edge>
    <edge id=":J112_8" function="internal">