<?xml version="1.0" encoding="UTF-8"?>

<!-- generated on 2023-12-05 17:21:12 by Eclipse SUMO netedit Version 1.19.0
-->

<additional xmlns:xsi="http://www.w3.org/2001/XMLSchema-instance" xsi:noNamespaceSchemaLocation="http://sumo.dlr.de/xsd/additional_file.xsd">
    <!-- TAZs -->
    <taz id="h_1" shape="-1379.20,-1037.32 -1378.36,-1086.69 -1396.07,-1086.69 -1397.10,-1037.79 -1379.20,-1037.32" fill="1" color="255,0,0,150">
        <tazSource id="-E84.1304" weight="0.00"/>
        <tazSink id="-E84.1304" weight="1.00"/>
        <tazSource id="E84.522.179" weight="1.00"/>
        <tazSink id="E84.522.179" weight="0.00"/>
    </taz>
    <taz id="h_2" shape="3.73,1631.12 50.59,1618.19 55.81,1636.77 9.80,1649.88 3.73,1631.12" fill="1" color="255,0,0,150">
        <tazSource id="-E3" weight="1.00"/>
        <tazSink id="-E3" weight="0.00"/>
        <tazSource id="E3" weight="0.00"/>
        <tazSink id="E3" weight="1.00"/>
    </taz>
    <taz id="h_3" shape="1611.82,814.63 1599.72,767.89 1619.86,761.97 1631.64,809.46 1611.82,814.63" fill="1" color="255,0,0,150">
        <tazSource id="-E8" weight="1.00"/>
        <tazSink id="-E8" weight="0.00"/>
        <tazSource id="E8.673.256.70" weight="0.00"/>
        <tazSink id="E8.673.256.70" weight="1.00"/>
    </taz>
    <taz id="h_4" shape="185.11,-969.32 184.54,-922.61 203.35,-922.62 203.80,-969.21 185.11,-969.32" fill="1" color="255,0,0,150">
        <tazSource id="-E84" weight="1.00"/>
        <tazSink id="-E84" weight="0.00"/>
        <tazSource id="E84.522.179.732.80" weight="0.00"/>
        <tazSink id="E84.522.179.732.80" weight="1.00"/>
    </taz>
    <taz id="h_5" shape="-1117.48,-1487.43 -1127.77,-1509.51 -1087.77,-1528.10 -1077.14,-1504.86 -1117.48,-1487.43" fill="1" color="255,0,0,150">
        <tazSource id="-E32.733.42" weight="1.00"/>
        <tazSink id="-E32.733.42" weight="0.00"/>
        <tazSource id="E32.1849.726" weight="0.00"/>
        <tazSink id="E32.1849.726" weight="1.00"/>
    </taz>
    <taz id="k_1" shape="74.52,909.18 122.81,1115.91 -61.91,1173.22 -138.63,958.92 74.52,909.18" fill="1" color="0,0,225,100">
        <tazSource id="-E27" weight="1.00"/>
        <tazSink id="-E27" weight="0.00"/>
        <tazSource id="-E36" weight="1.00"/>
        <tazSink id="-E36" weight="0.00"/>
        <tazSource id="-E840" weight="1.00"/>
        <tazSink id="-E840" weight="0.00"/>
        <tazSource id="E27" weight="0.00"/>
        <tazSink id="E27" weight="1.00"/>
        <tazSource id="E36" weight="0.00"/>
        <tazSink id="E36" weight="1.00"/>
        <tazSource id="E84" weight="0.00"/>
        <tazSink id="E84" weight="1.00"/>
    </taz>
    <taz id="k_10" shape="506.12,549.58 555.12,751.82 727.80,711.18 706.02,618.16 550.06,538.99 506.12,549.58" fill="1" color="0,0,225,100">
        <tazSource id="-E48" weight="1.00"/>
        <tazSink id="-E48" weight="0.00"/>
        <tazSource id="E48" weight="0.00"/>
        <tazSink id="E48" weight="1.00"/>
    </taz>
    <taz id="k_11" shape="223.80,357.61 272.87,561.81 484.41,510.55 483.03,499.22 273.68,345.58 223.80,357.61" fill="1" color="0,0,225,100">
        <tazSource id="-E51" weight="1.00"/>
        <tazSink id="-E51" weight="0.00"/>
        <tazSource id="E51" weight="0.00"/>
        <tazSink id="E51" weight="1.00"/>
    </taz>
    <taz id="k_12" shape="-37.27,260.80 -12.70,359.95 226.85,301.45 159.47,215.36 -37.27,260.80" fill="1" color="0,0,225,100">
        <tazSource id="-E54" weight="1.00"/>
        <tazSink id="-E54" weight="0.00"/>
        <tazSource id="E54" weight="0.00"/>
        <tazSink id="E54" weight="1.00"/>
    </taz>
    <taz id="k_13" shape="-40.15,245.41 147.39,200.27 100.20,117.88 -61.90,155.65 -40.15,245.41" fill="1" color="0,0,255,100">
        <tazSource id="-E93" weight="1.00"/>
        <tazSink id="-E93" weight="0.00"/>
        <tazSource id="E93" weight="0.00"/>
        <tazSink id="E93" weight="1.00"/>
    </taz>
    <taz id="k_14" shape="-313.27,-70.07 -303.66,-58.36 -291.60,-50.01 -281.47,-43.28 -266.49,-36.16 -244.93,-29.28 -195.85,-15.49 -174.10,-9.84 -151.73,-0.58 -133.84,10.43 -121.44,21.75 -111.72,31.45 -105.88,37.78 -101.25,43.21 -96.20,50.47 -91.04,59.30 -81.21,81.02 -73.19,110.70 71.01,74.15 -96.27,-147.58 -313.27,-70.07" fill="1" color="0,0,255,100">
        <tazSource id="-E28" weight="0.00"/>
        <tazSink id="-E28" weight="1.00"/>
        <tazSource id="E28" weight="1.00"/>
        <tazSink id="E28" weight="0.00"/>
    </taz>
    <taz id="k_15" shape="-566.36,-246.24 -497.27,-50.72 -380.52,-91.62 -378.18,-97.95 -441.58,-282.42 -452.09,-286.62 -566.36,-246.24" fill="1" color="0,0,255,100">
        <tazSource id="-E69" weight="1.00"/>
        <tazSink id="-E69" weight="0.00"/>
        <tazSource id="E69" weight="0.00"/>
        <tazSink id="E69" weight="1.00"/>
    </taz>
    <taz id="k_16" shape="-646.51,-471.71 -580.45,-285.66 -465.91,-326.67 -461.24,-337.06 -525.04,-516.97 -646.51,-471.71" fill="1" color="0,0,255,100">
        <tazSource id="-E67" weight="1.00"/>
        <tazSink id="-E67" weight="0.00"/>
        <tazSource id="E67" weight="0.00"/>
        <tazSink id="E67" weight="1.00"/>
    </taz>
    <taz id="k_17" shape="-703.93,-628.06 -660.95,-511.43 -538.54,-556.44 -583.12,-684.46 -592.37,-709.47 -597.70,-741.21 -599.29,-778.23 -668.73,-785.81 -711.73,-716.53 -714.47,-689.03 -713.49,-673.99 -711.94,-659.11 -708.73,-644.63 -703.93,-628.06" fill="1" color="0,0,255,100">
        <tazSource id="-E79" weight="1.00"/>
        <tazSink id="-E79" weight="0.00"/>
        <tazSource id="E79" weight="0.00"/>
        <tazSink id="E79" weight="1.00"/>
    </taz>
    <taz id="k_18*" shape="-790.12,-854.57 -692.97,-877.31 -588.24,-873.18 -590.65,-963.09 -736.72,-973.77 -798.04,-879.38 -790.12,-854.57" fill="1" color="0,128,0,100"/>
    <taz id="k_19" shape="-337.86,-114.22 -326.67,-109.78 -120.46,-183.54 -178.84,-260.32 -367.01,-195.72 -337.86,-114.22" fill="1" color="0,0,255,100">
        <tazSource id="-E29" weight="0.00"/>
        <tazSink id="-E29" weight="1.00"/>
        <tazSource id="E29" weight="1.00"/>
        <tazSink id="E29" weight="0.00"/>
    </taz>
    <taz id="k_2" shape="115.43,899.16 298.92,854.82 347.02,1060.13 164.14,1104.98 115.43,899.16" fill="1" color="0,0,225,100">
        <tazSource id="-E101.216" weight="1.00"/>
        <tazSink id="-E101.216" weight="0.00"/>
        <tazSource id="-E104" weight="1.00"/>
        <tazSink id="-E104" weight="0.00"/>
        <tazSource id="-E86" weight="1.00"/>
        <tazSink id="-E86" weight="0.00"/>
        <tazSource id="-E87" weight="1.00"/>
        <tazSink id="-E87" weight="0.00"/>
        <tazSource id="E101" weight="0.00"/>
        <tazSink id="E101" weight="1.00"/>
        <tazSource id="E104" weight="0.00"/>
        <tazSink id="E104" weight="1.00"/>
        <tazSource id="E86" weight="0.00"/>
        <tazSink id="E86" weight="1.00"/>
        <tazSource id="E87" weight="0.00"/>
        <tazSink id="E87" weight="1.00"/>
    </taz>
    <taz id="k_20" shape="-375.55,-217.87 -194.05,-280.61 -252.75,-358.11 -397.59,-305.37 -402.63,-297.18 -375.55,-217.87" fill="1" color="0,0,255,100">
        <tazSource id="-E94" weight="1.00"/>
        <tazSink id="-E94" weight="0.00"/>
        <tazSource id="E94" weight="0.00"/>
        <tazSink id="E94" weight="1.00"/>
    </taz>
    <taz id="k_21" shape="-420.65,-349.88 -455.62,-447.05 -307.75,-497.57 -306.68,-465.24 -303.39,-445.19 -298.30,-430.53 -280.40,-392.98 -411.20,-345.53 -420.65,-349.88" fill="1" color="0,0,255,100">
        <tazSource id="-E30" weight="0.00"/>
        <tazSink id="-E30" weight="1.00"/>
        <tazSource id="E30" weight="1.00"/>
        <tazSink id="E30" weight="0.00"/>
    </taz>
    <taz id="k_22" shape="-484.67,-529.54 -458.46,-456.05 -307.94,-506.78 -310.14,-559.53 -310.36,-591.10 -484.67,-529.54" fill="1" color="0,0,255,100">
        <tazSource id="-E95" weight="1.00"/>
        <tazSink id="-E95" weight="0.00"/>
        <tazSource id="E95" weight="0.00"/>
        <tazSink id="E95" weight="1.00"/>
    </taz>
    <taz id="k_23" shape="-498.48,-570.01 -554.14,-726.48 -555.95,-774.97 -300.15,-752.06 -316.99,-633.67 -498.48,-570.01" fill="1" color="0,0,255,100">
        <tazSource id="-E31" weight="0.00"/>
        <tazSink id="-E31" weight="1.00"/>
        <tazSource id="E31" weight="1.00"/>
        <tazSink id="E31" weight="0.00"/>
    </taz>
    <taz id="k_24*" shape="-551.95,-816.41 -294.66,-794.62 -276.67,-913.16 -544.10,-933.57 -551.95,-816.41" fill="1" color="0,128,0,100">
        <tazSource id="-E83" weight="0.00"/>
        <tazSink id="-E83" weight="1.00"/>
        <tazSource id="E83" weight="1.00"/>
        <tazSink id="E83" weight="0.00"/>
    </taz>
    <taz id="k_25*" shape="-468.90,-15.60 -395.33,191.51 -121.23,127.58 -114.76,116.46 -117.35,104.81 -123.30,86.95 -131.59,72.71 -141.16,59.77 -154.36,48.64 -173.26,37.51 -200.43,26.90 -221.40,20.69 -251.68,12.41 -281.72,2.83 -299.05,-4.23 -315.30,-14.28 -329.21,-24.55 -346.19,-40.82 -350.26,-46.30 -368.29,-52.31 -468.90,-15.60" fill="1" color="0,128,0,100">
        <tazSource id="-E58" weight="1.00"/>
        <tazSink id="-E58" weight="1.00"/>
        <tazSource id="-E62" weight="1.00"/>
        <tazSink id="-E62" weight="1.00"/>
        <tazSource id="E58" weight="1.00"/>
        <tazSink id="E58" weight="1.00"/>
        <tazSource id="E62.282" weight="1.00"/>
        <tazSink id="E62.282" weight="1.00"/>
    </taz>
    <taz id="k_26*" shape="-241.34,681.79 5.50,623.39 -102.93,166.46 -399.24,236.29 -241.34,681.79" fill="1" color="0,128,0,100"/>
    <taz id="k_27*" shape="47.45,613.09 230.24,570.08 181.70,365.93 -0.26,410.71 47.45,613.09" fill="1" color="0,128,0,100"/>
    <taz id="k_3" shape="389.34,1050.64 570.94,1007.28 524.08,802.03 340.27,845.95 389.34,1050.64" fill="1" color="0,0,255,100">
        <tazSource id="-E100" weight="1.00"/>
        <tazSink id="-E100" weight="0.00"/>
        <tazSource id="-E109" weight="1.00"/>
        <tazSink id="-E109" weight="0.00"/>
        <tazSource id="-E23" weight="1.00"/>
        <tazSink id="-E23" weight="0.00"/>
        <tazSource id="-E85" weight="1.00"/>
        <tazSink id="-E85" weight="0.00"/>
        <tazSource id="E100" weight="0.00"/>
        <tazSink id="E100" weight="1.00"/>
        <tazSource id="E109" weight="0.00"/>
        <tazSink id="E109" weight="1.00"/>
        <tazSource id="E23" weight="0.00"/>
        <tazSink id="E23" weight="1.00"/>
        <tazSource id="E85" weight="0.00"/>
        <tazSink id="E85" weight="1.00"/>
    </taz>
    <taz id="k_4" shape="612.42,997.50 786.30,956.78 737.45,751.64 564.75,792.51 612.42,997.50" fill="1" color="0,0,255,100">
        <tazSource id="-E102" weight="1.00"/>
        <tazSink id="-E102" weight="0.00"/>
        <tazSource id="-E103" weight="1.00"/>
        <tazSink id="-E103" weight="0.00"/>
        <tazSource id="-E1100" weight="1.00"/>
        <tazSink id="-E1100" weight="0.00"/>
        <tazSource id="-E20" weight="1.00"/>
        <tazSink id="-E20" weight="0.00"/>
        <tazSource id="E102" weight="0.00"/>
        <tazSink id="E102" weight="1.00"/>
        <tazSource id="E103" weight="0.00"/>
        <tazSink id="E103" weight="1.00"/>
        <tazSource id="E110" weight="0.00"/>
        <tazSink id="E110" weight="1.00"/>
        <tazSource id="E20" weight="0.00"/>
        <tazSink id="E20" weight="1.00"/>
    </taz>
    <taz id="k_5" shape="827.63,947.16 1010.58,904.27 961.55,698.16 778.84,741.34 827.63,947.16" fill="1" color="0,0,225,100">
        <tazSource id="-E105" weight="1.00"/>
        <tazSink id="-E105" weight="0.00"/>
        <tazSource id="-E106" weight="1.00"/>
        <tazSink id="-E106" weight="0.00"/>
        <tazSource id="-E1110" weight="1.00"/>
        <tazSink id="-E1110" weight="0.00"/>
        <tazSource id="-E17" weight="1.00"/>
        <tazSink id="-E17" weight="0.00"/>
        <tazSource id="E105" weight="0.00"/>
        <tazSink id="E105" weight="1.00"/>
        <tazSource id="E106" weight="0.00"/>
        <tazSink id="E106" weight="1.00"/>
        <tazSource id="E111" weight="0.00"/>
        <tazSink id="E111" weight="1.00"/>
        <tazSource id="E17" weight="0.00"/>
        <tazSink id="E17" weight="1.00"/>
    </taz>
    <taz id="k_6" shape="1052.07,895.87 1234.40,851.73 1219.43,638.47 1002.41,689.15 1052.07,895.87" fill="1" color="0,0,225,100">
        <tazSource id="-E107" weight="1.00"/>
        <tazSink id="-E107" weight="0.00"/>
        <tazSource id="-E108" weight="1.00"/>
        <tazSink id="-E108" weight="0.00"/>
        <tazSource id="-E112" weight="1.00"/>
        <tazSink id="-E112" weight="0.00"/>
        <tazSource id="-E14" weight="1.00"/>
        <tazSink id="-E14" weight="0.00"/>
        <tazSource id="E107" weight="0.00"/>
        <tazSink id="E107" weight="1.00"/>
        <tazSource id="E108" weight="0.00"/>
        <tazSink id="E108" weight="1.00"/>
        <tazSource id="E112" weight="0.00"/>
        <tazSink id="E112" weight="1.00"/>
        <tazSource id="E14" weight="0.00"/>
        <tazSink id="E14" weight="1.00"/>
    </taz>
    <taz id="k_7" shape="64.36,867.36 15.98,664.61 -222.96,721.51 -153.16,918.34 64.36,867.36" fill="1" color="0,0,225,100">
        <tazSource id="-E39" weight="1.00"/>
        <tazSink id="-E39" weight="0.00"/>
        <tazSource id="E39" weight="0.00"/>
        <tazSink id="E39" weight="1.00"/>
    </taz>
    <taz id="k_8" shape="57.76,655.80 106.06,858.17 288.81,813.55 240.56,612.13 57.76,655.80" fill="1" color="0,0,225,100">
        <tazSource id="-E44" weight="1.00"/>
        <tazSink id="-E44" weight="0.00"/>
        <tazSource id="E44" weight="0.00"/>
        <tazSink id="E44" weight="1.00"/>
    </taz>
    <taz id="k_9" shape="282.63,602.13 331.11,805.48 513.91,761.10 465.47,558.85 282.63,602.13" center="398.98,681.46" fill="1" color="0,0,225,100">
        <tazSource id="-E42" weight="1.00"/>
        <tazSink id="-E42" weight="0.00"/>
        <tazSource id="E42" weight="0.00"/>
        <tazSink id="E42" weight="1.00"/>
    </taz>
    <taz id="o_1" shape="-868.79,-509.26 -857.20,-479.19 -873.65,-473.23 -884.88,-503.30 -868.79,-509.26" fill="1" color="255,255,0,200">
        <tazSource id="-E74" weight="1.00"/>
        <tazSink id="-E74" weight="0.00"/>
        <tazSource id="E74" weight="0.00"/>
        <tazSink id="E74" weight="1.00"/>
    </taz>
    <taz id="o_10" shape="637.00,1316.91 676.05,1308.93 680.47,1329.85 642.04,1338.11 637.00,1316.91" fill="1" color="255,255,0,200">
        <tazSource id="-E10" weight="1.00"/>
        <tazSink id="-E10" weight="0.00"/>
        <tazSource id="E10" weight="0.00"/>
        <tazSink id="E10" weight="1.00"/>
    </taz>
    <taz id="o_11" shape="934.42,1240.42 976.29,1230.57 981.08,1255.57 941.16,1264.73 934.42,1240.42" fill="1" color="255,255,0,200">
        <tazSource id="-E7" weight="1.00"/>
        <tazSink id="-E7" weight="0.00"/>
        <tazSource id="E7" weight="0.00"/>
        <tazSink id="E7" weight="1.00"/>
    </taz>
    <taz id="o_2" shape="-776.15,-173.86 -786.47,-204.89 -803.73,-199.14 -792.94,-167.85 -776.15,-173.86" fill="1" color="255,255,0,200">
        <tazSource id="-E63" weight="1.00"/>
        <tazSink id="-E63" weight="0.00"/>
        <tazSource id="E63" weight="0.00"/>
        <tazSink id="E63" weight="1.00"/>
    </taz>
    <taz id="o_3" shape="-697.83,35.32 -689.23,61.75 -706.90,67.72 -715.98,41.96 -697.83,35.32" fill="1" color="255,255,0,200">
        <tazSource id="-E71" weight="1.00"/>
        <tazSink id="-E71" weight="0.00"/>
        <tazSource id="E71" weight="0.00"/>
        <tazSink id="E71" weight="1.00"/>
    </taz>
    <taz id="o_4" shape="-637.34,281.49 -626.90,310.21 -645.58,316.58 -656.40,288.20 -637.34,281.49" fill="1" color="255,255,0,200">
        <tazSource id="-E57" weight="1.00"/>
        <tazSink id="-E57" weight="0.00"/>
        <tazSource id="E57" weight="0.00"/>
        <tazSink id="E57" weight="1.00"/>
    </taz>
    <taz id="o_5" shape="-565.17,432.27 -550.85,470.81 -572.07,478.20 -585.85,439.88 -565.17,432.27" fill="1" color="255,255,0,200">
        <tazSource id="-E56" weight="0.00"/>
        <tazSink id="-E56" weight="1.00"/>
        <tazSource id="E56" weight="1.00"/>
        <tazSink id="E56" weight="0.00"/>
    </taz>
    <taz id="o_6" shape="-518.52,675.14 -507.63,704.31 -527.28,711.31 -537.73,681.44 -518.52,675.14" fill="1" color="255,255,0,200">
        <tazSource id="-E55" weight="0.00"/>
        <tazSink id="-E55" weight="1.00"/>
        <tazSource id="E55" weight="1.00"/>
        <tazSink id="E55" weight="0.00"/>
    </taz>
    <taz id="o_7" shape="-461.40,1062.62 -471.99,1031.25 -493.06,1038.00 -481.81,1070.14 -461.40,1062.62" fill="1" color="255,255,0,200">
        <tazSource id="-E33" weight="0.00"/>
        <tazSink id="-E33" weight="1.00"/>
        <tazSource id="E33" weight="1.00"/>
        <tazSink id="E33" weight="0.00"/>
    </taz>
    <taz id="o_8" shape="-347.22,1350.22 -365.19,1301.27 -394.41,1311.64 -377.90,1360.30 -347.22,1350.22" fill="1" color="255,255,0,200">
        <tazSource id="-E4" weight="1.00"/>
        <tazSink id="-E4" weight="0.00"/>
        <tazSource id="E4" weight="0.00"/>
        <tazSink id="E4" weight="1.00"/>
    </taz>
    <taz id="o_9" shape="277.44,1406.55 319.37,1398.03 324.50,1419.42 282.25,1427.62 277.44,1406.55" fill="1" color="255,255,0,200">
        <tazSource id="-E6" weight="1.00"/>
        <tazSink id="-E6" weight="0.00"/>
        <tazSource id="E6" weight="0.00"/>
        <tazSink id="E6" weight="1.00"/>
    </taz>
</additional>
