<?xml version="1.0" encoding="UTF-8"?>

<!-- generated on 2023-11-14 18:23:04 by Eclipse SUMO netedit Version 1.19.0
-->

<additional xmlns:xsi="http://www.w3.org/2001/XMLSchema-instance" xsi:noNamespaceSchemaLocation="http://sumo.dlr.de/xsd/additional_file.xsd">
    <!-- TAZs -->
    <taz id="h_1" shape="-1379.20,-1037.32 -1378.36,-1086.69 -1396.07,-1086.69 -1397.10,-1037.79 -1379.20,-1037.32" fill="1" color="255,0,0,150">
        <tazSource id="-E84.1162.142" weight="0.00"/>
        <tazSink id="-E84.1162.142" weight="1.00"/>
        <tazSource id="E84" weight="1.00"/>
        <tazSink id="E84" weight="0.00"/>
    </taz>
    <taz id="h_2" shape="3.73,1631.12 50.59,1618.19 55.81,1636.77 9.80,1649.88 3.73,1631.12" fill="1" color="255,0,0,150">
        <tazSource id="-E3" weight="1.00"/>
        <tazSink id="-E3" weight="0.00"/>
        <tazSource id="E3" weight="0.00"/>
        <tazSink id="E3" weight="1.00"/>
    </taz>
    <taz id="h_3" shape="1611.82,814.63 1599.72,767.89 1619.86,761.97 1631.64,809.46 1611.82,814.63" fill="1" color="255,0,0,150">
        <tazSource id="-E8" weight="1.00"/>
        <tazSink id="-E8" weight="0.00"/>
        <tazSource id="E8.673.256" weight="0.00"/>
        <tazSink id="E8.673.256" weight="1.00"/>
    </taz>
    <taz id="h_4" shape="185.11,-969.32 184.54,-922.61 203.35,-922.62 203.80,-969.21 185.11,-969.32" fill="1" color="255,0,0,150">
        <tazSource id="-E84" weight="1.00"/>
        <tazSink id="-E84" weight="0.00"/>
        <tazSource id="E84.522.179" weight="0.00"/>
        <tazSink id="E84.522.179" weight="1.00"/>
    </taz>
    <taz id="h_5" shape="-1117.48,-1487.43 -1127.77,-1509.51 -1087.77,-1528.10 -1077.14,-1504.86 -1117.48,-1487.43" fill="1" color="255,0,0,150">
        <tazSource id="-E32" weight="1.00"/>
        <tazSink id="-E32" weight="0.00"/>
        <tazSource id="E32.1849.709" weight="0.00"/>
        <tazSink id="E32.1849.709" weight="1.00"/>
    </taz>
    <taz id="k_1" shape="79.93,901.65 132.22,1120.83 -66.85,1181.22 -147.12,954.50 79.93,901.65" fill="1" color="0,0,225,100">
        <tazSource id="-E36" weight="1.00"/>
        <tazSink id="-E36" weight="0.00"/>
        <tazSource id="E36" weight="0.00"/>
        <tazSink id="E36" weight="1.00"/>
    </taz>
    <taz id="k_10" shape="500.64,538.62 551.62,759.79 738.69,716.04 712.85,606.49 666.00,552.40 604.33,511.06 500.64,538.62" fill="1" color="0,0,225,100">
        <tazSource id="-E48" weight="1.00"/>
        <tazSink id="-E48" weight="0.00"/>
        <tazSource id="E48" weight="0.00"/>
        <tazSink id="E48" weight="1.00"/>
    </taz>
    <taz id="k_11" shape="221.68,350.55 269.95,568.03 570.11,491.47 319.33,325.58 221.68,350.55" fill="1" color="0,0,225,100">
        <tazSource id="-E51" weight="1.00"/>
        <tazSink id="-E51" weight="0.00"/>
        <tazSource id="E51" weight="0.00"/>
        <tazSink id="E51" weight="1.00"/>
    </taz>
    <taz id="k_12" shape="-37.27,260.80 -11.84,362.09 271.19,295.81 203.67,203.69 -37.27,260.80" fill="1" color="0,0,225,100">
        <tazSource id="-E54" weight="1.00"/>
        <tazSink id="-E54" weight="0.00"/>
        <tazSource id="E54" weight="0.00"/>
        <tazSink id="E54" weight="1.00"/>
    </taz>
    <taz id="k_13" shape="-40.15,245.41 191.76,190.02 99.85,68.20 -68.65,125.92 -40.15,245.41" fill="1" color="0,0,255,100">
        <tazSource id="-E93" weight="1.00"/>
        <tazSink id="-E93" weight="0.00"/>
        <tazSource id="E93" weight="0.00"/>
        <tazSink id="E93" weight="1.00"/>
    </taz>
    <taz id="k_14" shape="-286.82,-81.53 -193.79,121.90 30.87,41.41 -113.21,-143.58 -286.82,-81.53" fill="1" color="0,0,255,100">
        <tazSource id="-E28" weight="0.00"/>
        <tazSink id="-E28" weight="1.00"/>
        <tazSource id="E28" weight="1.00"/>
        <tazSink id="E28" weight="0.00"/>
    </taz>
    <taz id="k_15" shape="-573.94,-246.43 -499.39,-38.35 -335.97,-95.86 -427.19,-300.12 -573.94,-246.43" fill="1" color="0,0,255,100">
        <tazSource id="-E69" weight="1.00"/>
        <tazSink id="-E69" weight="0.00"/>
        <tazSource id="E69" weight="0.00"/>
        <tazSink id="E69" weight="1.00"/>
    </taz>
    <taz id="k_16" shape="-678.34,-542.57 -583.17,-274.58 -442.96,-327.64 -550.88,-590.00 -678.34,-542.57" fill="1" color="0,0,255,100">
        <tazSource id="-E67" weight="1.00"/>
        <tazSink id="-E67" weight="0.00"/>
        <tazSource id="E67" weight="0.00"/>
        <tazSink id="E67" weight="1.00"/>
    </taz>
    <taz id="k_17" shape="-780.97,-827.24 -691.48,-575.99 -557.60,-621.39 -574.56,-710.34 -580.52,-749.32 -583.73,-793.79 -586.48,-842.86 -696.07,-847.44 -780.97,-827.24" fill="1" color="0,0,255,100">
        <tazSource id="-E79" weight="1.00"/>
        <tazSink id="-E79" weight="0.00"/>
        <tazSource id="E79" weight="0.00"/>
        <tazSink id="E79" weight="1.00"/>
    </taz>
    <taz id="k_18*" shape="-790.12,-854.57 -692.97,-877.31 -588.24,-873.18 -590.65,-963.09 -736.72,-973.77 -798.04,-879.38 -790.12,-854.57" fill="1" color="0,0,255,100">
        <tazSource id="-E96" weight="1.00"/>
        <tazSink id="-E96" weight="0.00"/>
        <tazSource id="E96" weight="0.00"/>
        <tazSink id="E96" weight="1.00"/>
    </taz>
    <taz id="k_19" shape="-299.94,-109.16 -132.22,-167.92 -201.09,-262.67 -345.43,-209.14 -299.94,-109.16" fill="1" color="0,0,255,100">
        <tazSource id="-E29" weight="0.00"/>
        <tazSink id="-E29" weight="1.00"/>
        <tazSource id="E29" weight="1.00"/>
        <tazSink id="E29" weight="0.00"/>
    </taz>
    <taz id="k_2" shape="110.94,895.31 305.51,848.00 356.22,1062.48 159.65,1111.61 110.94,895.31" fill="1" color="0,0,225,100">
        <tazSource id="-E27" weight="1.00"/>
        <tazSink id="-E27" weight="0.00"/>
        <tazSource id="E27" weight="0.00"/>
        <tazSink id="E27" weight="1.00"/>
    </taz>
    <taz id="k_20" shape="-353.55,-229.78 -213.19,-278.18 -269.57,-356.30 -392.02,-312.45 -353.55,-229.78" fill="1" color="0,0,255,100">
        <tazSource id="-E94" weight="1.00"/>
        <tazSink id="-E94" weight="0.00"/>
        <tazSource id="E94" weight="0.00"/>
        <tazSink id="E94" weight="1.00"/>
    </taz>
    <taz id="k_21" shape="-404.32,-341.91 -466.09,-479.47 -322.47,-531.38 -317.16,-447.25 -287.98,-381.70 -404.32,-341.91" fill="1" color="0,0,255,100">
        <tazSource id="-E30" weight="0.00"/>
        <tazSink id="-E30" weight="1.00"/>
        <tazSource id="E30" weight="1.00"/>
        <tazSink id="E30" weight="0.00"/>
    </taz>
    <taz id="k_22" shape="-511.49,-602.48 -471.87,-490.87 -325.12,-542.54 -329.03,-618.28 -326.76,-642.16 -323.73,-670.96 -511.49,-602.48" fill="1" color="0,0,255,100">
        <tazSource id="-E95" weight="1.00"/>
        <tazSink id="-E95" weight="0.00"/>
        <tazSource id="E95" weight="0.00"/>
        <tazSink id="E95" weight="1.00"/>
    </taz>
    <taz id="k_23" shape="-521.77,-632.83 -540.53,-739.12 -546.36,-837.08 -300.43,-821.24 -317.93,-706.61 -521.77,-632.83" fill="1" color="0,0,255,100">
        <tazSource id="-E31" weight="0.00"/>
        <tazSink id="-E31" weight="1.00"/>
        <tazSource id="E31" weight="1.00"/>
        <tazSink id="E31" weight="0.00"/>
    </taz>
    <taz id="k_24*" shape="-547.03,-870.25 -294.92,-852.08 -285.21,-938.52 -549.54,-959.19 -547.03,-870.25" fill="1" color="0,0,255,100">
        <tazSource id="-E83" weight="0.00"/>
        <tazSink id="-E83" weight="1.00"/>
        <tazSource id="E83" weight="1.00"/>
        <tazSink id="E83" weight="0.00"/>
    </taz>
    <taz id="k_3" shape="382.22,1055.59 575.86,1010.49 527.58,797.17 333.46,840.70 382.22,1055.59" fill="1" color="0,0,255,100">
        <tazSource id="-E23" weight="1.00"/>
        <tazSink id="-E23" weight="0.00"/>
        <tazSource id="E23" weight="0.00"/>
        <tazSink id="E23" weight="1.00"/>
    </taz>
    <taz id="k_4" shape="605.58,1003.70 792.72,958.49 742.70,745.03 558.14,787.65 605.58,1003.70" fill="1" color="0,0,255,100">
        <tazSource id="-E20" weight="1.00"/>
        <tazSink id="-E20" weight="0.00"/>
        <tazSource id="E20" weight="0.00"/>
        <tazSink id="E20" weight="1.00"/>
    </taz>
    <taz id="k_5" shape="823.92,952.11 1016.04,905.88 966.02,692.91 770.87,736.87 823.92,952.11" fill="1" color="0,0,225,100">
        <tazSource id="-E17" weight="1.00"/>
        <tazSink id="-E17" weight="0.00"/>
        <tazSource id="E17" weight="0.00"/>
        <tazSink id="E17" weight="1.00"/>
    </taz>
    <taz id="k_6" shape="1043.23,898.88 1238.10,847.07 1224.35,626.06 994.63,684.29 1043.23,898.88" fill="1" color="0,0,225,100">
        <tazSource id="-E14" weight="1.00"/>
        <tazSink id="-E14" weight="0.00"/>
        <tazSource id="E14" weight="0.00"/>
        <tazSink id="E14" weight="1.00"/>
    </taz>
    <taz id="k_7" shape="73.77,871.85 25.14,656.74 -232.92,717.81 -160.16,927.29 73.77,871.85" fill="1" color="0,0,225,100">
        <tazSource id="-E39" weight="1.00"/>
        <tazSink id="-E39" weight="0.00"/>
        <tazSource id="E39" weight="0.00"/>
        <tazSink id="E39" weight="1.00"/>
    </taz>
    <taz id="k_8" shape="54.71,651.62 105.42,864.92 299.90,819.82 247.63,606.02 54.71,651.62" fill="1" color="0,0,225,100">
        <tazSource id="-E44" weight="1.00"/>
        <tazSink id="-E44" weight="0.00"/>
        <tazSource id="E44" weight="0.00"/>
        <tazSink id="E44" weight="1.00"/>
    </taz>
    <taz id="k_9" shape="276.43,598.07 326.83,810.92 520.52,767.32 471.25,550.51 276.43,598.07" center="398.98,681.46" fill="1" color="0,0,225,100">
        <tazSource id="-E42" weight="1.00"/>
        <tazSink id="-E42" weight="0.00"/>
        <tazSource id="E42" weight="0.00"/>
        <tazSink id="E42" weight="1.00"/>
    </taz>
</additional>
